
     RDKit          3D

 12 12  0  0  0  0  0  0  0  0999 V2000
    0.0003   -1.1798   -0.7330 C   0  0  0  0  0  0  0  0  0  1  0  0
    0.1289   -1.2318    0.6501 C   0  0  0  0  0  0  0  0  0  2  0  0
    0.1316   -0.0430    1.3472 C   0  0  0  0  0  0  0  0  0  3  0  0
   -0.0040    1.1868    0.7403 C   0  0  0  0  0  0  0  0  0  4  0  0
   -0.1317    1.2239   -0.6434 C   0  0  0  0  0  0  0  0  0  5  0  0
   -0.1295    0.0441   -1.3739 C   0  0  0  0  0  0  0  0  0  6  0  0
    0.0013   -2.0973   -1.3081 H   0  0  0  0  0  0  0  0  0  7  0  0
    0.2319   -2.1776    1.1658 H   0  0  0  0  0  0  0  0  0  8  0  0
    0.2674   -0.0759    2.4283 H   0  0  0  0  0  0  0  0  0  9  0  0
   -0.0029    2.0973    1.3253 H   0  0  0  0  0  0  0  0  0 10  0  0
   -0.2334    2.1762   -1.1487 H   0  0  0  0  0  0  0  0  0 11  0  0
   -0.2308    0.0788   -2.4512 H   0  0  0  0  0  0  0  0  0 12  0  0
  1  7  1  0
  1  6  1  0
  1  2  1  0
  2  8  1  0
  2  3  1  0
  3  4  1  0
  3  9  1  0
  4  5  1  0
  4 10  1  0
  5 11  1  0
  5  6  1  0
  6 12  1  0
M  END
>  <rmg_smiles>  (1) 
[CH]1[CH][CH][CH][CH][CH]1

>  <rmg_adjacency_list>  (1) 
1  C u0 p0 c0 {2,S} {6,S} {7,S}
2  C u0 p0 c0 {1,S} {3,S} {8,S}
3  C u0 p0 c0 {2,S} {4,S} {9,S}
4  C u0 p0 c0 {3,S} {5,S} {10,S}
5  C u0 p0 c0 {4,S} {6,S} {11,S}
6  C u0 p0 c0 {1,S} {5,S} {12,S}
7  H u0 p0 c0 {1,S}
8  H u0 p0 c0 {2,S}
9  H u0 p0 c0 {3,S}
10 H u0 p0 c0 {4,S}
11 H u0 p0 c0 {5,S}
12 H u0 p0 c0 {6,S}


>  <multiplicity>  (1) 
1

>  <reaction>  (1) 
rxn_277

>  <type>  (1) 
r1h

>  <role_mapnums>  (1) 
{"r1h_a": 3, "r1h_h": 9}

>  <role_mapidx>  (1) 
{"r1h_a": 2, "r1h_h": 8}

>  <ordered_mapped_smiles>  (1) 
[CH:1]1([H:7])[CH:2]([H:8])[CH:3]([H:9])[CH:4]([H:10])[CH:5]([H:11])[CH:6]1[H:12]

>  <mol_properties>  (1) 
{"2": {"label": "donator", "atom_type": "Cs"}, "8": {"label": "d_hydrogen", "atom_type": "H0"}}

>  <level_of_theory>  (1) 
wb97xd/def2tzvp

>  <lot_method>  (1) 
wb97xd

>  <lot_basis>  (1) 
def2tzvp

>  <spin_multiplicity>  (1) 
1.0

>  <optical_isomers>  (1) 
1.0

>  <modes>  (1) 
IdealGasTranslation(mass=(78.0469, 'amu')),         NonlinearRotor(             inertia = ([87.7329, 87.7329, 175.465

>  <frequency_value>  (1) 
unknown

>  <frequency_units>  (1) 
unknown

>  <frequency_list>  (1) 
unknown

>  <arkane_path>  (1) 
/home/calvin/Dropbox/PersonalFolders/Calvin/HAb_Converged/rxn_277/output/Species/rxn_277_c1ccccc1/arkane/output.py

>  <path_exists>  (1) 
True

>  <E0_value>  (1) 
-609504.360370392

>  <E0_units>  (1) 
kJ/mol

>  <thermo_class>  (1) 
NASA

>  <Cp0_value>  (1) 
33.257888

>  <Cp0_units>  (1) 
J/(mol*K)

>  <CpInf_value>  (1) 
282.692048

>  <CpInf_units>  (1) 
J/(mol*K)

>  <Tmin_value>  (1) 
10.0

>  <Tmin_units>  (1) 
K

>  <Tmax_value>  (1) 
3000.0

>  <Tmax_units>  (1) 
K

>  <polynomials>  (1) 
[{"name": "polynomial1", "class": "NASAPolynomial", "Tmin_value": 10.0, "Tmin_units": "K", "Tmax_value": 624.592263586622, "Tmax_units": "K", "coeffs": [4.233168258053532, -0.019045525749694137, 0.00020733289574214212, -3.229069809315715e-07, 1.6291912332876307e-10, -73306442.69933616, 7.126695957154937]}, {"name": "polynomial2", "class": "NASAPolynomial", "Tmin_value": 624.592263586622, "Tmin_units": "K", "Tmax_value": 3000.0, "Tmax_units": "K", "coeffs": [-1.8698187272419042, 0.050228720875929805, -3.153624591495123e-05, 9.439495887577878e-09, -1.0810156458482927e-12, -73306269.19580704, 28.983618873639625]}]

>  <H298_value>  (1) 
-145671.69164689348

>  <H298_units>  (1) 
kcal/mol

>  <S298_value>  (1) 
64.08076207186494

>  <S298_units>  (1) 
cal/(mol*K)

>  <Cp_T_value_list>  (1) 
[19.436126678110945, 26.41574535371564, 32.51606760943964, 37.38353889791204, 44.752284810021976, 50.04011810550739, 57.434969988722415, 60.93243343986719, 62.90784632965772]

>  <Cp_T_units>  (1) 
cal/(mol*K)

>  <T_list>  (1) 
[300.0, 400.0, 500.0, 600.0, 800.0, 1000.0, 1500.0, 2000.0, 2400.0]

>  <T_units>  (1) 
K

>  <yaml_path>  (1) 
/home/calvin/Dropbox/PersonalFolders/Calvin/HAb_Converged/rxn_277/output/Species/rxn_277_c1ccccc1/rxn_277_c1ccccc1.yml

>  <frequencies_cm1>  (1) 
[411.08520919648, 411.08520919648, 619.4913466731599, 619.4913466731599, 688.7723615666399, 717.7579066023599, 868.2066879782399, 868.2066879782399, 984.4304145192399, 984.4304145192399, 1003.7129092978, 1017.3782100845998, 1018.6966712660399, 1060.29000134928, 1060.29000134928, 1165.64329012872, 1194.6494361204, 1194.6494361204, 1323.1101305016398, 1373.28719223488, 1510.9015780476798, 1510.9015780476798, 1649.40867195208, 1649.40867195208, 3149.73509260696, 3159.4312758787996, 3159.4312758787996, 3175.33521387992, 3175.33521387992, 3185.60135693332]

>  <ZPE_kJmol>  (1) 
262.6411261645067

>  <E_elec_kJmol>  (1) 
-609767.0014965564

>  <E0_minus_Eelec_plus_ZPE_kJmol>  (1) 
0.0

>  <rxn>  (1) 
rxn_277

>  <species_type>  (1) 
r0

>  <species_folder>  (1) 
rxn_277_c1ccccc1

>  <frequencies_cm1_list>  (1) 
[411.08520919648, 411.08520919648, 619.4913466731599, 619.4913466731599, 688.7723615666399, 717.7579066023599, 868.2066879782399, 868.2066879782399, 984.4304145192399, 984.4304145192399, 1003.7129092978, 1017.3782100845998, 1018.6966712660399, 1060.29000134928, 1060.29000134928, 1165.64329012872, 1194.6494361204, 1194.6494361204, 1323.1101305016398, 1373.28719223488, 1510.9015780476798, 1510.9015780476798, 1649.40867195208, 1649.40867195208, 3149.73509260696, 3159.4312758787996, 3159.4312758787996, 3175.33521387992, 3175.33521387992, 3185.60135693332]

>  <E0_kJmol>  (1) 
-609504

>  <H298_kJmol>  (1) 
-609490

$$$$

     RDKit          3D

  3  2  0  0  0  0  0  0  0  0999 V2000
    0.1703    0.0425   -0.8897 H   0  0  0  0  0  0  0  0  0  1  0  0
    0.0448   -0.0001    0.0678 O   0  0  0  0  0  0  0  0  0  2  0  0
   -0.9195   -0.0545    0.1058 H   0  0  0  0  0  0  0  0  0  3  0  0
  1  2  1  0
  2  3  1  0
M  END
>  <rmg_smiles>  (2) 
O

>  <rmg_adjacency_list>  (2) 
1 H u0 p0 c0 {2,S}
2 O u0 p2 c0 {1,S} {3,S}
3 H u0 p0 c0 {2,S}


>  <multiplicity>  (2) 
1

>  <reaction>  (2) 
rxn_277

>  <type>  (2) 
r2h

>  <role_mapnums>  (2) 
{"r2h_a": 2, "r2h_h": 1}

>  <role_mapidx>  (2) 
{"r2h_a": 1, "r2h_h": 0}

>  <ordered_mapped_smiles>  (2) 
[H:1][O:2][H:3]

>  <mol_properties>  (2) 
{"0": {"label": "a_hydrogen", "atom_type": "H0"}, "1": {"label": "acceptor", "atom_type": "O2s"}}

>  <level_of_theory>  (2) 
wb97xd/def2tzvp

>  <lot_method>  (2) 
wb97xd

>  <lot_basis>  (2) 
def2tzvp

>  <spin_multiplicity>  (2) 
1.0

>  <optical_isomers>  (2) 
1.0

>  <modes>  (2) 
IdealGasTranslation(mass=(18.0106, 'amu')),         NonlinearRotor(             inertia = ([0.602336, 1.17002, 1.77235

>  <frequency_value>  (2) 
unknown

>  <frequency_units>  (2) 
unknown

>  <frequency_list>  (2) 
unknown

>  <arkane_path>  (2) 
/home/calvin/Dropbox/PersonalFolders/Calvin/HAb_Converged/rxn_277/output/Species/rxn_277_O/arkane/output.py

>  <path_exists>  (2) 
True

>  <E0_value>  (2) 
-200631.8610370755

>  <E0_units>  (2) 
kJ/mol

>  <thermo_class>  (2) 
NASA

>  <Cp0_value>  (2) 
33.257888

>  <Cp0_units>  (2) 
J/(mol*K)

>  <CpInf_value>  (2) 
58.201304

>  <CpInf_units>  (2) 
J/(mol*K)

>  <Tmin_value>  (2) 
10.0

>  <Tmin_units>  (2) 
K

>  <Tmax_value>  (2) 
3000.0

>  <Tmax_units>  (2) 
K

>  <polynomials>  (2) 
[{"name": "polynomial1", "class": "NASAPolynomial", "Tmin_value": 10.0, "Tmin_units": "K", "Tmax_value": 775.5892611220346, "Tmax_units": "K", "coeffs": [4.0046377604896435, -0.0002349968237338005, 9.297667881726044e-07, 1.2709781190462173e-09, -1.099134861879461e-12, -24130439.408818465, -0.1238602766167563]}, {"name": "polynomial2", "class": "NASAPolynomial", "Tmin_value": 775.5892611220346, "Tmin_units": "K", "Tmax_value": 3000.0, "Tmax_units": "K", "coeffs": [3.5165154437069566, 0.001116128343838406, 5.723157882575294e-07, -3.60634757198529e-10, 5.17568046911035e-14, -24130328.613551635, 2.333142915795675]}]

>  <H298_value>  (2) 
-47949.795051442925

>  <H298_units>  (2) 
kcal/mol

>  <S298_value>  (2) 
45.0524244619197

>  <S298_units>  (2) 
cal/(mol*K)

>  <Cp_T_value_list>  (2) 
[8.034735208537397, 8.172598301648419, 8.365657236320523, 8.605476742654242, 9.165502751993213, 9.72952523102407, 10.975927733177299, 11.88561344031021, 12.367407656630238]

>  <Cp_T_units>  (2) 
cal/(mol*K)

>  <T_list>  (2) 
[300.0, 400.0, 500.0, 600.0, 800.0, 1000.0, 1500.0, 2000.0, 2400.0]

>  <T_units>  (2) 
K

>  <yaml_path>  (2) 
/home/calvin/Dropbox/PersonalFolders/Calvin/HAb_Converged/rxn_277/output/Species/rxn_277_O/rxn_277_O.yml

>  <frequencies_cm1>  (2) 
[1605.0960156821197, 3829.7657818612397, 3938.29848484384]

>  <ZPE_kJmol>  (2) 
56.06396479185102

>  <E_elec_kJmol>  (2) 
-200687.92500186732

>  <E0_minus_Eelec_plus_ZPE_kJmol>  (2) 
0.0

>  <rxn>  (2) 
rxn_277

>  <species_type>  (2) 
p0

>  <species_folder>  (2) 
rxn_277_O

>  <frequencies_cm1_list>  (2) 
[1605.0960156821197, 3829.7657818612397, 3938.29848484384]

>  <E0_kJmol>  (2) 
-200632

>  <H298_kJmol>  (2) 
-200622

$$$$

     RDKit          3D

 14 13  0  0  0  0  0  0  0  0999 V2000
    0.0486   -1.2125   -1.4003 C   0  0  0  0  0  0  0  0  0  1  0  0
    0.1771   -1.2645   -0.0172 C   0  0  0  0  0  0  0  0  0  2  0  0
    0.1798   -0.0757    0.6800 C   0  0  0  0  0  0  0  0  0  3  0  0
    0.0443    1.1541    0.0731 C   0  0  0  0  0  0  0  0  0  4  0  0
   -0.0834    1.1912   -1.3106 C   0  0  0  0  0  0  0  0  0  5  0  0
   -0.0813    0.0115   -2.0412 C   0  0  0  0  0  0  0  0  0  6  0  0
    0.0496   -2.1300   -1.9754 H   0  0  0  0  0  0  0  0  0  7  0  0
    0.2801   -2.2103    0.4985 H   0  0  0  0  0  0  0  0  0  8  0  0
    0.3331   -0.1128    1.9000 H   0  0  0  0  0  0  0  0  0  9  0  0
    0.0454    2.0646    0.6580 H   0  0  0  0  0  0  0  0  0 10  0  0
   -0.1851    2.1435   -1.8159 H   0  0  0  0  0  0  0  0  0 11  0  0
   -0.1826    0.0461   -3.1185 H   0  0  0  0  0  0  0  0  0 12  0  0
    0.1694   -0.1684    3.1492 O   0  0  0  0  0  1  0  0  0 13  0  0
   -0.7949   -0.2228    3.1872 H   0  0  0  0  0  0  0  0  0 14  0  0
  1  7  1  0
  1  6  1  0
  1  2  1  0
  2  8  1  0
  2  3  1  0
  3  4  1  0
  3  9  1  0
  4  5  1  0
  4 10  1  0
  5 11  1  0
  5  6  1  0
  6 12  1  0
 13 14  1  0
M  RAD  1  13   2
M  END
>  <rmg_smiles>  (3) 
[CH]1[CH][CH][CH][CH][CH]1.[OH]

>  <rmg_adjacency_list>  (3) 
multiplicity 2
1  O u1 p2 c0 {14,S}
2  C u0 p0 c0 {3,S} {7,S} {8,S}
3  C u0 p0 c0 {2,S} {4,S} {9,S}
4  C u0 p0 c0 {3,S} {5,S} {10,S}
5  C u0 p0 c0 {4,S} {6,S} {11,S}
6  C u0 p0 c0 {5,S} {7,S} {12,S}
7  C u0 p0 c0 {2,S} {6,S} {13,S}
8  H u0 p0 c0 {2,S}
9  H u0 p0 c0 {3,S}
10 H u0 p0 c0 {4,S}
11 H u0 p0 c0 {5,S}
12 H u0 p0 c0 {6,S}
13 H u0 p0 c0 {7,S}
14 H u0 p0 c0 {1,S}


>  <multiplicity>  (3) 
2

>  <reaction>  (3) 
rxn_277

>  <type>  (3) 
ts

>  <role_mapnums>  (3) 
{"*2": 9, "*1": 3, "*3": 13, "*0": 2, "*4": 14}

>  <role_mapidx>  (3) 
{"*2": 8, "*1": 2, "*3": 12, "*0": 1, "*4": 13}

>  <ordered_mapped_smiles>  (3) 
[CH:1]1([H:7])[CH:2]([H:8])[CH:3]([H:9])[CH:4]([H:10])[CH:5]([H:11])[CH:6]1[H:12].[O:13][H:14]

>  <mol_properties>  (3) 
{"1": {"label": "*0", "atom_type": "Cs"}, "2": {"label": "*1", "atom_type": "Cs"}, "8": {"label": "*2", "atom_type": "H0"}, "12": {"label": "*3", "atom_type": "O2s"}, "13": {"label": "*4", "atom_type": "H0"}}

>  <level_of_theory>  (3) 
wb97xd/def2tzvp

>  <lot_method>  (3) 
wb97xd

>  <lot_basis>  (3) 
def2tzvp

>  <spin_multiplicity>  (3) 
2.0

>  <optical_isomers>  (3) 
1.0

>  <modes>  (3) 
IdealGasTranslation(mass=(95.0497, 'amu')),         NonlinearRotor(             inertia = ([89.8327, 291.954, 379.251

>  <frequency_value>  (3) 
-1340.07

>  <frequency_units>  (3) 
cm^-1

>  <frequency_list>  (3) 
unknown

>  <arkane_path>  (3) 
/home/calvin/Dropbox/PersonalFolders/Calvin/HAb_Converged/rxn_277/output/rxns/TS0/arkane/output.py

>  <path_exists>  (3) 
True

>  <E0_value>  (3) 
-808328.0

>  <E0_units>  (3) 
kJ/mol

>  <thermo_class>  (3) 
unknown

>  <Cp0_value>  (3) 
unknown

>  <Cp0_units>  (3) 
unknown

>  <CpInf_value>  (3) 
unknown

>  <CpInf_units>  (3) 
unknown

>  <Tmin_value>  (3) 
unknown

>  <Tmin_units>  (3) 
unknown

>  <Tmax_value>  (3) 
unknown

>  <Tmax_units>  (3) 
unknown

>  <polynomials>  (3) 
unknown

>  <H298_value>  (3) 
unknown

>  <H298_units>  (3) 
unknown

>  <S298_value>  (3) 
unknown

>  <S298_units>  (3) 
unknown

>  <Cp_T_value_list>  (3) 
unknown

>  <Cp_T_units>  (3) 
unknown

>  <T_list>  (3) 
unknown

>  <T_units>  (3) 
unknown

>  <yaml_path>  (3) 
unknown

>  <frequencies_cm1>  (3) 
unknown

>  <ZPE_kJmol>  (3) 
unknown

>  <E_elec_kJmol>  (3) 
unknown

>  <E0_minus_Eelec_plus_ZPE_kJmol>  (3) 
unknown

>  <rxn>  (3) 
unknown

>  <species_type>  (3) 
unknown

>  <species_folder>  (3) 
unknown

>  <frequencies_cm1_list>  (3) 
[]

>  <ts_imag_freq_cm1>  (3) 
-1356.3461

>  <ts_freq_out_path>  (3) 
/home/calvin/Dropbox/PersonalFolders/Calvin/HAb_Converged/rxn_277/output/rxns/TS0/geometry/freq.out

>  <E0_kJmol>  (3) 
-808328

>  <H298_kJmol>  (3) 
unknown

$$$$

     RDKit          3D

 11 11  0  0  0  0  0  0  0  0999 V2000
    0.1524   -1.5397    0.0698 C   0  0  0  0  0  3  0  0  0  1  0  0
   -1.1218   -1.0406    0.0516 C   0  0  0  0  0  0  0  0  0  2  0  0
   -1.2464    0.3470   -0.0114 C   0  0  0  0  0  0  0  0  0  3  0  0
   -0.1137    1.1487   -0.0521 C   0  0  0  0  0  0  0  0  0  4  0  0
    1.1542    0.5837   -0.0308 C   0  0  0  0  0  0  0  0  0  5  0  0
    1.3041   -0.8014    0.0319 C   0  0  0  0  0  0  0  0  0  6  0  0
   -1.9955   -1.6793    0.0840 H   0  0  0  0  0  0  0  0  0  7  0  0
   -2.2319    0.7966   -0.0284 H   0  0  0  0  0  0  0  0  0  8  0  0
   -0.2203    2.2248   -0.1009 H   0  0  0  0  0  0  0  0  0  9  0  0
    2.0325    1.2173   -0.0630 H   0  0  0  0  0  0  0  0  0 10  0  0
    2.2862   -1.2570    0.0492 H   0  0  0  0  0  0  0  0  0 11  0  0
  1  6  1  0
  1  2  1  0
  2  7  1  0
  2  3  1  0
  3  4  1  0
  3  8  1  0
  4  5  1  0
  4  9  1  0
  5  6  1  0
  5 10  1  0
  6 11  1  0
M  RAD  1   1   2
M  END
>  <rmg_smiles>  (4) 
[C]1[CH][CH][CH][CH][CH]1

>  <rmg_adjacency_list>  (4) 
multiplicity 2
1  C u0 p0 c0 {2,S} {3,S} {8,S}
2  C u0 p0 c0 {1,S} {4,S} {7,S}
3  C u0 p0 c0 {1,S} {5,S} {9,S}
4  C u0 p0 c0 {2,S} {6,S} {10,S}
5  C u0 p0 c0 {3,S} {6,S} {11,S}
6  C u1 p1 c0 {4,S} {5,S}
7  H u0 p0 c0 {2,S}
8  H u0 p0 c0 {1,S}
9  H u0 p0 c0 {3,S}
10 H u0 p0 c0 {4,S}
11 H u0 p0 c0 {5,S}


>  <multiplicity>  (4) 
2

>  <reaction>  (4) 
rxn_277

>  <type>  (4) 
r1

>  <role_mapnums>  (4) 
{}

>  <role_mapidx>  (4) 
{}

>  <ordered_mapped_smiles>  (4) 
[CH:1]1[CH:2]([H:7])[CH:3]([H:8])[CH:4]([H:9])[CH:5]([H:10])[CH:6]1[H:11]

>  <level_of_theory>  (4) 
wb97xd/def2tzvp

>  <lot_method>  (4) 
wb97xd

>  <lot_basis>  (4) 
def2tzvp

>  <spin_multiplicity>  (4) 
2.0

>  <optical_isomers>  (4) 
1.0

>  <modes>  (4) 
IdealGasTranslation(mass=(77.0391, 'amu')),         NonlinearRotor(             inertia = ([79.4834, 89.154, 168.637

>  <frequency_value>  (4) 
unknown

>  <frequency_units>  (4) 
unknown

>  <frequency_list>  (4) 
unknown

>  <arkane_path>  (4) 
/home/calvin/Dropbox/PersonalFolders/Calvin/HAb_Converged/rxn_277/output/Species/rxn_277_[c]1ccccc1/arkane/output.py

>  <path_exists>  (4) 
True

>  <E0_value>  (4) 
-607724.3998530591

>  <E0_units>  (4) 
kJ/mol

>  <thermo_class>  (4) 
NASA

>  <Cp0_value>  (4) 
33.257888

>  <Cp0_units>  (4) 
J/(mol*K)

>  <CpInf_value>  (4) 
257.748632

>  <CpInf_units>  (4) 
J/(mol*K)

>  <Tmin_value>  (4) 
10.0

>  <Tmin_units>  (4) 
K

>  <Tmax_value>  (4) 
3000.0

>  <Tmax_units>  (4) 
K

>  <polynomials>  (4) 
[{"name": "polynomial1", "class": "NASAPolynomial", "Tmin_value": 10.0, "Tmin_units": "K", "Tmax_value": 611.9514440069146, "Tmax_units": "K", "coeffs": [4.21092824796689, -0.0177158055371586, 0.00019979619343695558, -3.2072542312861555e-07, 1.663400132916073e-10, -73092362.08808899, 9.541913883825746]}, {"name": "polynomial2", "class": "NASAPolynomial", "Tmin_value": 611.9514440069146, "Tmin_units": "K", "Tmax_value": 3000.0, "Tmax_units": "K", "coeffs": [-0.9065651052715874, 0.045726326043511574, -2.922673270471325e-05, 8.862920022768984e-09, -1.0248092407500463e-12, -73092297.33007778, 27.12926551119779]}]

>  <H298_value>  (4) 
-145246.28547837675

>  <H298_units>  (4) 
kcal/mol

>  <S298_value>  (4) 
68.80259293434003

>  <S298_units>  (4) 
cal/(mol*K)

>  <Cp_T_value_list>  (4) 
[19.0088457147948, 25.48368626323164, 31.015617142413397, 35.350513599609414, 41.905097827045225, 46.56251177649668, 52.95315854009716, 55.93105668249137, 57.650713362445174]

>  <Cp_T_units>  (4) 
cal/(mol*K)

>  <T_list>  (4) 
[300.0, 400.0, 500.0, 600.0, 800.0, 1000.0, 1500.0, 2000.0, 2400.0]

>  <T_units>  (4) 
K

>  <yaml_path>  (4) 
/home/calvin/Dropbox/PersonalFolders/Calvin/HAb_Converged/rxn_277/output/Species/rxn_277_[c]1ccccc1/rxn_277_c1ccccc1.yml

>  <frequencies_cm1>  (4) 
[400.5512537155999, 426.67326587288, 597.8672099004799, 615.68016982056, 676.79633916856, 724.72789670216, 824.4571245045198, 899.6574807438399, 971.9119002808799, 984.9523054035599, 991.6407491052399, 1020.6812300235198, 1047.53114262472, 1072.8977863968, 1169.36519617216, 1172.49654147808, 1297.26966474248, 1311.9787472979199, 1460.7382502850799, 1471.6292890026, 1588.58778297284, 1641.45670295152, 3150.80634231688, 3156.9248262369997, 3168.1111453232797, 3171.7231796016, 3181.6597073596404]

>  <ZPE_kJmol>  (4) 
228.47946828382223

>  <E_elec_kJmol>  (4) 
-607952.8793213429

>  <E0_minus_Eelec_plus_ZPE_kJmol>  (4) 
0.0

>  <rxn>  (4) 
rxn_277

>  <species_type>  (4) 
p1

>  <species_folder>  (4) 
rxn_277_[c]1ccccc1

>  <frequencies_cm1_list>  (4) 
[400.5512537155999, 426.67326587288, 597.8672099004799, 615.68016982056, 676.79633916856, 724.72789670216, 824.4571245045198, 899.6574807438399, 971.9119002808799, 984.9523054035599, 991.6407491052399, 1020.6812300235198, 1047.53114262472, 1072.8977863968, 1169.36519617216, 1172.49654147808, 1297.26966474248, 1311.9787472979199, 1460.7382502850799, 1471.6292890026, 1588.58778297284, 1641.45670295152, 3150.80634231688, 3156.9248262369997, 3168.1111453232797, 3171.7231796016, 3181.6597073596404]

>  <E0_kJmol>  (4) 
-607724

>  <H298_kJmol>  (4) 
-607710

$$$$

     RDKit          3D

  2  1  0  0  0  0  0  0  0  0999 V2000
    0.0000    0.0000    0.4855 O   0  0  0  0  0  1  0  0  0  1  0  0
    0.0000    0.0000   -0.4855 H   0  0  0  0  0  0  0  0  0  2  0  0
  1  2  1  0
M  RAD  1   1   2
M  END
>  <rmg_smiles>  (5) 
[OH]

>  <rmg_adjacency_list>  (5) 
multiplicity 2
1 O u1 p2 c0 {2,S}
2 H u0 p0 c0 {1,S}


>  <multiplicity>  (5) 
2

>  <reaction>  (5) 
rxn_277

>  <type>  (5) 
r2

>  <role_mapnums>  (5) 
{}

>  <role_mapidx>  (5) 
{}

>  <ordered_mapped_smiles>  (5) 
[O:1][H:2]

>  <level_of_theory>  (5) 
wb97xd/def2tzvp

>  <lot_method>  (5) 
wb97xd

>  <lot_basis>  (5) 
def2tzvp

>  <spin_multiplicity>  (5) 
2.0

>  <optical_isomers>  (5) 
1.0

>  <modes>  (5) 
IdealGasTranslation(mass=(17.0027, 'amu')),         LinearRotor(inertia=(0.893825, 'amu*angstrom^2'), symmetry=1),         HarmonicOscillator(frequencies=([3770.81

>  <frequency_value>  (5) 
unknown

>  <frequency_units>  (5) 
unknown

>  <frequency_list>  (5) 
unknown

>  <arkane_path>  (5) 
/home/calvin/Dropbox/PersonalFolders/Calvin/HAb_Converged/rxn_277/output/Species/rxn_277_[OH]/arkane/output.py

>  <path_exists>  (5) 
True

>  <E0_value>  (5) 
-198836.11065632655

>  <E0_units>  (5) 
kJ/mol

>  <thermo_class>  (5) 
NASA

>  <Cp0_value>  (5) 
29.100652

>  <Cp0_units>  (5) 
J/(mol*K)

>  <CpInf_value>  (5) 
37.415124

>  <CpInf_units>  (5) 
J/(mol*K)

>  <Tmin_value>  (5) 
10.0

>  <Tmin_units>  (5) 
K

>  <Tmax_value>  (5) 
3000.0

>  <Tmax_units>  (5) 
K

>  <polynomials>  (5) 
[{"name": "polynomial1", "class": "NASAPolynomial", "Tmin_value": 10.0, "Tmin_units": "K", "Tmax_value": 985.6459359324402, "Tmax_units": "K", "coeffs": [3.49686777077684, 0.00018334165413566602, -9.927422114975035e-07, 1.559335065614597e-09, -6.051175734082516e-13, -23914460.190127544, 1.4722271748407303]}, {"name": "polynomial2", "class": "NASAPolynomial", "Tmin_value": 985.6459359324402, "Tmin_units": "K", "Tmax_value": 3000.0, "Tmax_units": "K", "coeffs": [3.4538997471416084, -0.0002990851320361188, 7.409868333423891e-07, -2.8938793165350344e-10, 3.527321549332907e-14, -23914419.815793645, 1.8407453398243376]}]

>  <H298_value>  (5) 
-47520.895636098256

>  <H298_units>  (5) 
kcal/mol

>  <S298_value>  (5) 
42.56065351108258

>  <S298_units>  (5) 
cal/(mol*K)

>  <Cp_T_value_list>  (5) 
[6.95467440837288, 6.946622347988586, 6.950155535415497, 6.9708793647131895, 7.071890602250594, 7.236783548847422, 7.699190754845551, 8.085833580657471, 8.29452334304518]

>  <Cp_T_units>  (5) 
cal/(mol*K)

>  <T_list>  (5) 
[300.0, 400.0, 500.0, 600.0, 800.0, 1000.0, 1500.0, 2000.0, 2400.0]

>  <T_units>  (5) 
K

>  <yaml_path>  (5) 
/home/calvin/Dropbox/PersonalFolders/Calvin/HAb_Converged/rxn_277/output/Species/rxn_277_[OH]/rxn_277_OH.yml

>  <frequencies_cm1>  (5) 
[3725.55927963024]

>  <ZPE_kJmol>  (5) 
22.28379948603074

>  <E_elec_kJmol>  (5) 
-198858.3944558126

>  <E0_minus_Eelec_plus_ZPE_kJmol>  (5) 
0.0

>  <rxn>  (5) 
rxn_277

>  <species_type>  (5) 
r1

>  <species_folder>  (5) 
rxn_277_[OH]

>  <frequencies_cm1_list>  (5) 
[3725.55927963024]

>  <E0_kJmol>  (5) 
-198836

>  <H298_kJmol>  (5) 
-198827

$$$$
