
     RDKit          3D

  9  8  0  0  0  0  0  0  0  0999 V2000
    0.0679   -0.4714   -1.1984 C   0  0  0  0  0  0  0  0  0  1  0  0
    0.0319   -0.3829    0.1129 C   0  0  0  0  0  0  0  0  0  2  0  0
   -0.0912    0.7960    1.0021 C   0  0  0  0  0  0  0  0  0  3  0  0
    0.1587   -1.4273   -1.7029 H   0  0  0  0  0  0  0  0  0  4  0  0
    0.0086    0.4124   -1.8328 H   0  0  0  0  0  0  0  0  0  5  0  0
    0.0869   -1.3311    0.6475 H   0  0  0  0  0  0  0  0  0  6  0  0
   -0.9888    0.7219    1.6209 H   0  0  0  0  0  0  0  0  0  7  0  0
   -0.1458    1.7262    0.4276 H   0  0  0  0  0  0  0  0  0  8  0  0
    0.7622    0.8617    1.6813 H   0  0  0  0  0  0  0  0  0  9  0  0
  1  5  1  0
  1  4  1  0
  1  2  1  0
  2  6  1  0
  2  3  1  0
  3  8  1  0
  3  7  1  0
  3  9  1  0
M  END
>  <rmg_smiles>  (1) 
[CH2][CH]C

>  <rmg_adjacency_list>  (1) 
1 C u0 p0 c0 {2,S} {4,S} {5,S} {6,S}
2 C u0 p0 c0 {1,S} {3,S} {7,S}
3 C u0 p0 c0 {2,S} {8,S} {9,S}
4 H u0 p0 c0 {1,S}
5 H u0 p0 c0 {1,S}
6 H u0 p0 c0 {1,S}
7 H u0 p0 c0 {2,S}
8 H u0 p0 c0 {3,S}
9 H u0 p0 c0 {3,S}


>  <multiplicity>  (1) 
1

>  <reaction>  (1) 
rxn_762

>  <type>  (1) 
r1h

>  <role_mapnums>  (1) 
{"r1h_a": 2, "r1h_h": 6}

>  <role_mapidx>  (1) 
{"r1h_a": 1, "r1h_h": 5}

>  <ordered_mapped_smiles>  (1) 
[CH:1]([CH:2]([C:3]([H:7])([H:8])[H:9])[H:6])([H:4])[H:5]

>  <mol_properties>  (1) 
{"1": {"label": "donator", "atom_type": "Cs"}, "5": {"label": "d_hydrogen", "atom_type": "H0"}}

>  <level_of_theory>  (1) 
wb97xd/def2tzvp

>  <lot_method>  (1) 
wb97xd

>  <lot_basis>  (1) 
def2tzvp

>  <spin_multiplicity>  (1) 
1.0

>  <optical_isomers>  (1) 
1.0

>  <modes>  (1) 
IdealGasTranslation(mass=(42.047, 'amu')),         NonlinearRotor(             inertia = ([10.7194, 53.9495, 61.5632

>  <frequency_value>  (1) 
unknown

>  <frequency_units>  (1) 
unknown

>  <frequency_list>  (1) 
unknown

>  <arkane_path>  (1) 
/home/calvin/Dropbox/PersonalFolders/Calvin/HAb_Converged/rxn_762/output/Species/rxn_762_C=CC/arkane/output.py

>  <path_exists>  (1) 
True

>  <E0_value>  (1) 
-309367.88070268225

>  <E0_units>  (1) 
kJ/mol

>  <thermo_class>  (1) 
NASA

>  <Cp0_value>  (1) 
33.257888

>  <Cp0_units>  (1) 
J/(mol*K)

>  <CpInf_value>  (1) 
207.8618

>  <CpInf_units>  (1) 
J/(mol*K)

>  <Tmin_value>  (1) 
10.0

>  <Tmin_units>  (1) 
K

>  <Tmax_value>  (1) 
3000.0

>  <Tmax_units>  (1) 
K

>  <polynomials>  (1) 
[{"name": "polynomial1", "class": "NASAPolynomial", "Tmin_value": 10.0, "Tmin_units": "K", "Tmax_value": 532.0577202057873, "Tmax_units": "K", "coeffs": [4.020103835302654, -0.0017074980479917085, 7.459046034705118e-05, -1.1023396025676474e-07, 5.3481197627967796e-11, -37208361.301710494, 6.986181334463051]}, {"name": "polynomial2", "class": "NASAPolynomial", "Tmin_value": 532.0577202057873, "Tmin_units": "K", "Tmax_value": 3000.0, "Tmax_units": "K", "coeffs": [-0.30507671788284774, 0.030809359218709958, -1.7083112014376123e-05, 4.633555316648191e-09, -4.924250044802513e-13, -37207901.05583462, 25.12344343354427]}]

>  <H298_value>  (1) 
-73937.54186756606

>  <H298_units>  (1) 
kcal/mol

>  <S298_value>  (1) 
63.24337268320408

>  <S298_units>  (1) 
cal/(mol*K)

>  <Cp_T_value_list>  (1) 
[15.257526344712856, 19.04881200484783, 22.609043962382263, 25.769394717679983, 30.960482554899503, 34.89991831876069, 40.970847866509764, 44.05802967631756, 45.61721763006197]

>  <Cp_T_units>  (1) 
cal/(mol*K)

>  <T_list>  (1) 
[300.0, 400.0, 500.0, 600.0, 800.0, 1000.0, 1500.0, 2000.0, 2400.0]

>  <T_units>  (1) 
K

>  <yaml_path>  (1) 
/home/calvin/Dropbox/PersonalFolders/Calvin/HAb_Converged/rxn_762/output/Species/rxn_762_C=CC/rxn_762_C=CC.yml

>  <frequencies_cm1>  (1) 
[200.09708523947998, 429.33078919172, 590.7049442117201, 925.49107951768, 943.8671322339999, 950.17102475776, 1024.49240687612, 1068.78446219012, 1186.6081963106801, 1322.3410281457998, 1395.89330790832, 1440.30896895808, 1465.7442825833598, 1480.7692464635202, 1719.664798761, 3008.0348505287598, 3066.795643912, 3091.69533268232, 3111.44478246264, 3123.9495627303595, 3201.2649504482397]

>  <ZPE_kJmol>  (1) 
207.83598829281505

>  <E_elec_kJmol>  (1) 
-309575.71669097507

>  <E0_minus_Eelec_plus_ZPE_kJmol>  (1) 
0.0

>  <rxn>  (1) 
rxn_762

>  <species_type>  (1) 
r0

>  <species_folder>  (1) 
rxn_762_C=CC

>  <frequencies_cm1_list>  (1) 
[200.09708523947998, 429.33078919172, 590.7049442117201, 925.49107951768, 943.8671322339999, 950.17102475776, 1024.49240687612, 1068.78446219012, 1186.6081963106801, 1322.3410281457998, 1395.89330790832, 1440.30896895808, 1465.7442825833598, 1480.7692464635202, 1719.664798761, 3008.0348505287598, 3066.795643912, 3091.69533268232, 3111.44478246264, 3123.9495627303595, 3201.2649504482397]

>  <E0_kJmol>  (1) 
-309368

>  <H298_kJmol>  (1) 
-309355

$$$$

     RDKit          3D

 11 10  0  0  0  0  0  0  0  0999 V2000
    0.4713    1.2875   -0.4477 H   0  0  0  0  0  0  0  0  0  1  0  0
    0.3392   -0.7144   -1.0339 C   0  0  0  0  0  0  0  0  0  2  0  0
    0.4379    0.3213    0.0585 C   0  0  0  0  0  0  0  0  0  3  0  0
   -0.7454    0.3927    0.9922 C   0  0  0  0  0  0  0  0  0  4  0  0
   -0.5600   -0.5592   -1.6357 H   0  0  0  0  0  0  0  0  0  5  0  0
    1.2032   -0.6771   -1.6997 H   0  0  0  0  0  0  0  0  0  6  0  0
    0.2841   -1.7262   -0.6179 H   0  0  0  0  0  0  0  0  0  7  0  0
    1.3912    0.2833    0.5886 H   0  0  0  0  0  0  0  0  0  8  0  0
   -0.8765   -0.5457    1.5413 H   0  0  0  0  0  0  0  0  0  9  0  0
   -0.6292    1.1918    1.7267 H   0  0  0  0  0  0  0  0  0 10  0  0
   -1.6677    0.5776    0.4351 H   0  0  0  0  0  0  0  0  0 11  0  0
  1  3  1  0
  2  7  1  0
  2  5  1  0
  2  6  1  0
  2  3  1  0
  3  4  1  0
  3  8  1  0
  4  9  1  0
  4 10  1  0
  4 11  1  0
M  END
>  <rmg_smiles>  (2) 
CCC

>  <rmg_adjacency_list>  (2) 
1  H u0 p0 c0 {3,S}
2  C u0 p0 c0 {3,S} {5,S} {6,S} {7,S}
3  C u0 p0 c0 {1,S} {2,S} {4,S} {8,S}
4  C u0 p0 c0 {3,S} {9,S} {10,S} {11,S}
5  H u0 p0 c0 {2,S}
6  H u0 p0 c0 {2,S}
7  H u0 p0 c0 {2,S}
8  H u0 p0 c0 {3,S}
9  H u0 p0 c0 {4,S}
10 H u0 p0 c0 {4,S}
11 H u0 p0 c0 {4,S}


>  <multiplicity>  (2) 
1

>  <reaction>  (2) 
rxn_762

>  <type>  (2) 
r2h

>  <role_mapnums>  (2) 
{"r2h_a": 3, "r2h_h": 1}

>  <role_mapidx>  (2) 
{"r2h_a": 2, "r2h_h": 0}

>  <ordered_mapped_smiles>  (2) 
[H:1][C:3]([C:2]([H:5])([H:6])[H:7])([C:4]([H:9])([H:10])[H:11])[H:8]

>  <mol_properties>  (2) 
{"0": {"label": "a_hydrogen", "atom_type": "H0"}, "2": {"label": "acceptor", "atom_type": "Cs"}}

>  <level_of_theory>  (2) 
wb97xd/def2tzvp

>  <lot_method>  (2) 
wb97xd

>  <lot_basis>  (2) 
def2tzvp

>  <spin_multiplicity>  (2) 
1.0

>  <optical_isomers>  (2) 
1.0

>  <modes>  (2) 
IdealGasTranslation(mass=(44.0626, 'amu')),         NonlinearRotor(             inertia = ([17.0625, 59.5808, 67.2958

>  <frequency_value>  (2) 
unknown

>  <frequency_units>  (2) 
unknown

>  <frequency_list>  (2) 
unknown

>  <arkane_path>  (2) 
/home/calvin/Dropbox/PersonalFolders/Calvin/HAb_Converged/rxn_762/output/Species/rxn_762_CCC/arkane/output.py

>  <path_exists>  (2) 
True

>  <E0_value>  (2) 
-312559.7664121831

>  <E0_units>  (2) 
kJ/mol

>  <thermo_class>  (2) 
NASA

>  <Cp0_value>  (2) 
33.257888

>  <Cp0_units>  (2) 
J/(mol*K)

>  <CpInf_value>  (2) 
257.748632

>  <CpInf_units>  (2) 
J/(mol*K)

>  <Tmin_value>  (2) 
10.0

>  <Tmin_units>  (2) 
K

>  <Tmax_value>  (2) 
3000.0

>  <Tmax_units>  (2) 
K

>  <polynomials>  (2) 
[{"name": "polynomial1", "class": "NASAPolynomial", "Tmin_value": 10.0, "Tmin_units": "K", "Tmax_value": 577.4310568776192, "Tmax_units": "K", "coeffs": [3.9747269033817734, 0.0011347804367172543, 7.533889062875609e-05, -1.0470498139729524e-07, 4.699078499553375e-11, -37592254.8773633, 6.773591698117238]}, {"name": "polynomial2", "class": "NASAPolynomial", "Tmin_value": 577.4310568776192, "Tmin_units": "K", "Tmax_value": 3000.0, "Tmax_units": "K", "coeffs": [-1.3041055241664254, 0.03770227026025092, -1.9652378532074013e-05, 4.9654907444475164e-09, -4.909963524622396e-13, -37591645.24138486, 29.34198158192454]}]

>  <H298_value>  (2) 
-74700.16503809701

>  <H298_units>  (2) 
kcal/mol

>  <S298_value>  (2) 
64.12787959081382

>  <S298_units>  (2) 
cal/(mol*K)

>  <Cp_T_value_list>  (2) 
[17.187849905588877, 21.82888089347945, 26.282080105357306, 30.30750880664003, 37.00458219733553, 42.16907955247373, 50.28489012355217, 54.3677942411287, 56.31048938168173]

>  <Cp_T_units>  (2) 
cal/(mol*K)

>  <T_list>  (2) 
[300.0, 400.0, 500.0, 600.0, 800.0, 1000.0, 1500.0, 2000.0, 2400.0]

>  <T_units>  (2) 
K

>  <yaml_path>  (2) 
/home/calvin/Dropbox/PersonalFolders/Calvin/HAb_Converged/rxn_762/output/Species/rxn_762_CCC/rxn_762_CCC.yml

>  <frequencies_cm1>  (2) 
[219.27657523823999, 274.69314677064, 369.88329727648, 749.53831466332, 878.21188558948, 908.3991530561998, 929.9271520343999, 1065.0968910732797, 1172.11199030016, 1205.9799618984, 1309.06714552224, 1359.46395078572, 1398.3379546822398, 1410.31397708032, 1476.4087107853202, 1480.39842925624, 1483.440503753, 1494.09119798432, 1498.5410044716796, 3005.39792816588, 3007.40308787932, 3010.35589156692, 3037.8787687294803, 3071.65746951856, 3081.94421352792, 3083.3450785332, 3086.08500567588]

>  <ZPE_kJmol>  (2) 
269.5620865819488

>  <E_elec_kJmol>  (2) 
-312829.32849876507

>  <E0_minus_Eelec_plus_ZPE_kJmol>  (2) 
0.0

>  <rxn>  (2) 
rxn_762

>  <species_type>  (2) 
p0

>  <species_folder>  (2) 
rxn_762_CCC

>  <frequencies_cm1_list>  (2) 
[219.27657523823999, 274.69314677064, 369.88329727648, 749.53831466332, 878.21188558948, 908.3991530561998, 929.9271520343999, 1065.0968910732797, 1172.11199030016, 1205.9799618984, 1309.06714552224, 1359.46395078572, 1398.3379546822398, 1410.31397708032, 1476.4087107853202, 1480.39842925624, 1483.440503753, 1494.09119798432, 1498.5410044716796, 3005.39792816588, 3007.40308787932, 3010.35589156692, 3037.8787687294803, 3071.65746951856, 3081.94421352792, 3083.3450785332, 3086.08500567588]

>  <E0_kJmol>  (2) 
-312560

>  <H298_kJmol>  (2) 
-312545

$$$$

     RDKit          3D

 19 17  0  0  0  0  0  0  0  0999 V2000
    0.2722    1.0893   -1.8779 C   0  0  0  0  0  0  0  0  0  1  0  0
    0.2362    1.1778   -0.5666 C   0  0  0  0  0  3  0  0  0  2  0  0
    0.1131    2.3566    0.3226 C   0  0  0  0  0  0  0  0  0  3  0  0
    0.3630    0.1334   -2.3824 H   0  0  0  0  0  0  0  0  0  4  0  0
    0.2129    1.9731   -2.5123 H   0  0  0  0  0  0  0  0  0  5  0  0
    0.3069   -0.0405    0.1202 H   0  0  0  0  0  0  0  0  0  6  0  0
   -0.7846    2.2826    0.9414 H   0  0  0  0  0  0  0  0  0  7  0  0
    0.0585    3.2869   -0.2519 H   0  0  0  0  0  0  0  0  0  8  0  0
    0.9665    2.4223    1.0018 H   0  0  0  0  0  0  0  0  0  9  0  0
    0.1689   -2.2146   -0.3758 C   0  0  0  0  0  0  0  0  0 10  0  0
    0.2677   -1.1790    0.7167 C   0  0  0  0  0  0  0  0  0 11  0  0
   -0.9157   -1.1075    1.6503 C   0  0  0  0  0  0  0  0  0 12  0  0
   -0.7303   -2.0594   -0.9775 H   0  0  0  0  0  0  0  0  0 13  0  0
    1.0329   -2.1773   -1.0415 H   0  0  0  0  0  0  0  0  0 14  0  0
    0.1138   -3.2265    0.0403 H   0  0  0  0  0  0  0  0  0 15  0  0
    1.2209   -1.2170    1.2468 H   0  0  0  0  0  0  0  0  0 16  0  0
   -1.0467   -2.0459    2.1994 H   0  0  0  0  0  0  0  0  0 17  0  0
   -0.7995   -0.3084    2.3849 H   0  0  0  0  0  0  0  0  0 18  0  0
   -1.8380   -0.9227    1.0933 H   0  0  0  0  0  0  0  0  0 19  0  0
  1  5  1  0
  1  4  1  0
  1  2  1  0
  2  3  1  0
  3  7  1  0
  3  9  1  0
  3  8  1  0
  6 11  1  0
 10 13  1  0
 10 14  1  0
 10 15  1  0
 10 11  1  0
 11 16  1  0
 11 12  1  0
 12 19  1  0
 12 17  1  0
 12 18  1  0
M  RAD  1   2   2
M  END
>  <rmg_smiles>  (3) 
CCC.[CH2][C]C

>  <rmg_adjacency_list>  (3) 
multiplicity 2
1  C u0 p0 c0 {2,S} {3,S} {7,S} {8,S}
2  C u0 p0 c0 {1,S} {9,S} {10,S} {11,S}
3  C u0 p0 c0 {1,S} {12,S} {13,S} {14,S}
4  C u0 p0 c0 {6,S} {15,S} {16,S} {17,S}
5  C u0 p0 c0 {6,S} {18,S} {19,S}
6  C u1 p1 c0 {4,S} {5,S}
7  H u0 p0 c0 {1,S}
8  H u0 p0 c0 {1,S}
9  H u0 p0 c0 {2,S}
10 H u0 p0 c0 {2,S}
11 H u0 p0 c0 {2,S}
12 H u0 p0 c0 {3,S}
13 H u0 p0 c0 {3,S}
14 H u0 p0 c0 {3,S}
15 H u0 p0 c0 {4,S}
16 H u0 p0 c0 {4,S}
17 H u0 p0 c0 {4,S}
18 H u0 p0 c0 {5,S}
19 H u0 p0 c0 {5,S}


>  <multiplicity>  (3) 
2

>  <reaction>  (3) 
rxn_762

>  <type>  (3) 
ts

>  <role_mapnums>  (3) 
{"*2": 6, "*1": 2, "*3": 11, "*0": 10, "*4": 1}

>  <role_mapidx>  (3) 
{"*2": 5, "*1": 1, "*3": 10, "*0": 9, "*4": 0}

>  <ordered_mapped_smiles>  (3) 
[CH:1]([CH:2][C:3]([H:7])([H:8])[H:9])([H:4])[H:5].[H:6][C:11]([C:10]([H:13])([H:14])[H:15])([C:12]([H:17])([H:18])[H:19])[H:16]

>  <mol_properties>  (3) 
{"0": {"label": "*4", "atom_type": "Cs"}, "1": {"label": "*1", "atom_type": "C2s"}, "5": {"label": "*2", "atom_type": "H0"}, "9": {"label": "*0", "atom_type": "Cs"}, "10": {"label": "*3", "atom_type": "Cs"}}

>  <level_of_theory>  (3) 
wb97xd/def2tzvp

>  <lot_method>  (3) 
wb97xd

>  <lot_basis>  (3) 
def2tzvp

>  <spin_multiplicity>  (3) 
2.0

>  <optical_isomers>  (3) 
2.0

>  <modes>  (3) 
IdealGasTranslation(mass=(85.1017, 'amu')),         NonlinearRotor(             inertia = ([119.429, 275.369, 366.272

>  <frequency_value>  (3) 
-1586.95

>  <frequency_units>  (3) 
cm^-1

>  <frequency_list>  (3) 
unknown

>  <arkane_path>  (3) 
/home/calvin/Dropbox/PersonalFolders/Calvin/HAb_Converged/rxn_762/output/rxns/TS0/arkane/output.py

>  <path_exists>  (3) 
True

>  <E0_value>  (3) 
-620144.0

>  <E0_units>  (3) 
kJ/mol

>  <thermo_class>  (3) 
unknown

>  <Cp0_value>  (3) 
unknown

>  <Cp0_units>  (3) 
unknown

>  <CpInf_value>  (3) 
unknown

>  <CpInf_units>  (3) 
unknown

>  <Tmin_value>  (3) 
unknown

>  <Tmin_units>  (3) 
unknown

>  <Tmax_value>  (3) 
unknown

>  <Tmax_units>  (3) 
unknown

>  <polynomials>  (3) 
unknown

>  <H298_value>  (3) 
unknown

>  <H298_units>  (3) 
unknown

>  <S298_value>  (3) 
unknown

>  <S298_units>  (3) 
unknown

>  <Cp_T_value_list>  (3) 
unknown

>  <Cp_T_units>  (3) 
unknown

>  <T_list>  (3) 
unknown

>  <T_units>  (3) 
unknown

>  <yaml_path>  (3) 
unknown

>  <frequencies_cm1>  (3) 
unknown

>  <ZPE_kJmol>  (3) 
unknown

>  <E_elec_kJmol>  (3) 
unknown

>  <E0_minus_Eelec_plus_ZPE_kJmol>  (3) 
unknown

>  <rxn>  (3) 
unknown

>  <species_type>  (3) 
unknown

>  <species_folder>  (3) 
unknown

>  <frequencies_cm1_list>  (3) 
[]

>  <ts_imag_freq_cm1>  (3) 
-1606.2246

>  <ts_freq_out_path>  (3) 
/home/calvin/Dropbox/PersonalFolders/Calvin/HAb_Converged/rxn_762/output/rxns/TS0/geometry/freq.out

>  <E0_kJmol>  (3) 
-620144

>  <H298_kJmol>  (3) 
unknown

$$$$

     RDKit          3D

  8  7  0  0  0  0  0  0  0  0999 V2000
    1.4097   -0.3618   -0.1144 C   0  0  0  0  0  0  0  0  0  1  0  0
    0.1804   -0.1811   -0.5085 C   0  0  0  0  0  3  0  0  0  2  0  0
   -1.1132    0.2655    0.0162 C   0  0  0  0  0  0  0  0  0  3  0  0
    2.1849   -0.7256   -0.7809 H   0  0  0  0  0  0  0  0  0  4  0  0
    1.7118   -0.1519    0.9143 H   0  0  0  0  0  0  0  0  0  5  0  0
   -1.8662   -0.5198   -0.0756 H   0  0  0  0  0  0  0  0  0  6  0  0
   -1.0300    0.5356    1.0772 H   0  0  0  0  0  0  0  0  0  7  0  0
   -1.4772    1.1391   -0.5284 H   0  0  0  0  0  0  0  0  0  8  0  0
  1  5  1  0
  1  4  1  0
  1  2  1  0
  2  3  1  0
  3  6  1  0
  3  7  1  0
  3  8  1  0
M  RAD  1   2   2
M  END
>  <rmg_smiles>  (4) 
[CH2][C]C

>  <rmg_adjacency_list>  (4) 
multiplicity 2
1 C u0 p0 c0 {3,S} {4,S} {5,S} {6,S}
2 C u0 p0 c0 {3,S} {7,S} {8,S}
3 C u1 p1 c0 {1,S} {2,S}
4 H u0 p0 c0 {1,S}
5 H u0 p0 c0 {1,S}
6 H u0 p0 c0 {1,S}
7 H u0 p0 c0 {2,S}
8 H u0 p0 c0 {2,S}


>  <multiplicity>  (4) 
2

>  <reaction>  (4) 
rxn_762

>  <type>  (4) 
r1

>  <role_mapnums>  (4) 
{}

>  <role_mapidx>  (4) 
{}

>  <ordered_mapped_smiles>  (4) 
[CH:1]([CH:2][C:3]([H:6])([H:7])[H:8])([H:4])[H:5]

>  <level_of_theory>  (4) 
wb97xd/def2tzvp

>  <lot_method>  (4) 
wb97xd

>  <lot_basis>  (4) 
def2tzvp

>  <spin_multiplicity>  (4) 
2.0

>  <optical_isomers>  (4) 
1.0

>  <modes>  (4) 
IdealGasTranslation(mass=(41.0391, 'amu')),         NonlinearRotor(             inertia = ([6.71616, 57.9316, 61.5152

>  <frequency_value>  (4) 
unknown

>  <frequency_units>  (4) 
unknown

>  <frequency_list>  (4) 
unknown

>  <arkane_path>  (4) 
/home/calvin/Dropbox/PersonalFolders/Calvin/HAb_Converged/rxn_762/output/Species/rxn_762_C=[C]C/arkane/output.py

>  <path_exists>  (4) 
True

>  <E0_value>  (4) 
-307613.2565359382

>  <E0_units>  (4) 
kJ/mol

>  <thermo_class>  (4) 
NASA

>  <Cp0_value>  (4) 
33.257888

>  <Cp0_units>  (4) 
J/(mol*K)

>  <CpInf_value>  (4) 
182.918384

>  <CpInf_units>  (4) 
J/(mol*K)

>  <Tmin_value>  (4) 
10.0

>  <Tmin_units>  (4) 
K

>  <Tmax_value>  (4) 
3000.0

>  <Tmax_units>  (4) 
K

>  <polynomials>  (4) 
[{"name": "polynomial1", "class": "NASAPolynomial", "Tmin_value": 10.0, "Tmin_units": "K", "Tmax_value": 538.1692736306433, "Tmax_units": "K", "coeffs": [3.9303886196913362, 0.005418243692389709, 4.114996360384344e-05, -6.443969944539894e-08, 3.128163040505741e-11, -36997327.50077409, 7.425360615295283]}, {"name": "polynomial2", "class": "NASAPolynomial", "Tmin_value": 538.1692736306433, "Tmin_units": "K", "Tmax_value": 3000.0, "Tmax_units": "K", "coeffs": [1.273053533371181, 0.025169201287411135, -1.3900535286108769e-05, 3.755192168085655e-09, -3.9753238140025035e-13, -36997041.482044026, 18.59902444170328]}]

>  <H298_value>  (4) 
-73518.02602426113

>  <H298_units>  (4) 
kcal/mol

>  <S298_value>  (4) 
65.08531904367933

>  <S298_units>  (4) 
cal/(mol*K)

>  <Cp_T_value_list>  (4) 
[15.446293369595749, 18.596972462105906, 21.515764657035927, 24.104780904171406, 28.36121466049163, 31.59534994857027, 36.5882810723973, 39.12876014023866, 40.40916769152129]

>  <Cp_T_units>  (4) 
cal/(mol*K)

>  <T_list>  (4) 
[300.0, 400.0, 500.0, 600.0, 800.0, 1000.0, 1500.0, 2000.0, 2400.0]

>  <T_units>  (4) 
K

>  <yaml_path>  (4) 
/home/calvin/Dropbox/PersonalFolders/Calvin/HAb_Converged/rxn_762/output/Species/rxn_762_C=[C]C/rxn_762_C=CC.yml

>  <frequencies_cm1>  (4) 
[176.04890264884, 312.71564448747995, 484.0194602802, 893.4634599852, 895.1939402858399, 932.7632169715598, 1043.3422815795197, 1098.3399670074, 1378.28635754784, 1408.11654177792, 1443.1999697778, 1458.9940360138, 1748.70527967928, 2967.7256467003594, 3032.41264841476, 3055.0530990147995, 3082.9330594139997, 3144.5573856756796]

>  <ZPE_kJmol>  (4) 
170.8020872739218

>  <E_elec_kJmol>  (4) 
-307784.0586232121

>  <E0_minus_Eelec_plus_ZPE_kJmol>  (4) 
0.0

>  <rxn>  (4) 
rxn_762

>  <species_type>  (4) 
p1

>  <species_folder>  (4) 
rxn_762_C=[C]C

>  <frequencies_cm1_list>  (4) 
[176.04890264884, 312.71564448747995, 484.0194602802, 893.4634599852, 895.1939402858399, 932.7632169715598, 1043.3422815795197, 1098.3399670074, 1378.28635754784, 1408.11654177792, 1443.1999697778, 1458.9940360138, 1748.70527967928, 2967.7256467003594, 3032.41264841476, 3055.0530990147995, 3082.9330594139997, 3144.5573856756796]

>  <E0_kJmol>  (4) 
-307613

>  <H298_kJmol>  (4) 
-307599

$$$$

     RDKit          3D

 10  9  0  0  0  0  0  0  0  0999 V2000
    1.2930    0.1441    0.3288 C   0  0  0  0  0  0  0  0  0  1  0  0
   -0.0374   -0.1647    0.9100 C   0  0  0  0  0  3  0  0  0  2  0  0
   -1.2664    0.4569    0.3567 C   0  0  0  0  0  0  0  0  0  3  0  0
    1.4384    1.2242    0.2174 H   0  0  0  0  0  0  0  0  0  4  0  0
    2.1077   -0.2477    0.9385 H   0  0  0  0  0  0  0  0  0  5  0  0
    1.4057   -0.2836   -0.6789 H   0  0  0  0  0  0  0  0  0  6  0  0
   -0.1309   -0.9912    1.6030 H   0  0  0  0  0  0  0  0  0  7  0  0
   -1.5005    0.0716   -0.6471 H   0  0  0  0  0  0  0  0  0  8  0  0
   -2.1382    0.2713    0.9849 H   0  0  0  0  0  0  0  0  0  9  0  0
   -1.1497    1.5406    0.2456 H   0  0  0  0  0  0  0  0  0 10  0  0
  1  5  1  0
  1  4  1  0
  1  6  1  0
  1  2  1  0
  2  7  1  0
  2  3  1  0
  3  9  1  0
  3 10  1  0
  3  8  1  0
M  RAD  1   2   2
M  END
>  <rmg_smiles>  (5) 
C[CH]C

>  <rmg_adjacency_list>  (5) 
multiplicity 2
1  C u0 p0 c0 {3,S} {4,S} {5,S} {6,S}
2  C u0 p0 c0 {3,S} {7,S} {8,S} {9,S}
3  C u1 p0 c0 {1,S} {2,S} {10,S}
4  H u0 p0 c0 {1,S}
5  H u0 p0 c0 {1,S}
6  H u0 p0 c0 {1,S}
7  H u0 p0 c0 {2,S}
8  H u0 p0 c0 {2,S}
9  H u0 p0 c0 {2,S}
10 H u0 p0 c0 {3,S}


>  <multiplicity>  (5) 
2

>  <reaction>  (5) 
rxn_762

>  <type>  (5) 
r2

>  <role_mapnums>  (5) 
{}

>  <role_mapidx>  (5) 
{}

>  <ordered_mapped_smiles>  (5) 
[C:1]([C:2]([C:3]([H:8])([H:9])[H:10])[H:7])([H:4])([H:5])[H:6]

>  <level_of_theory>  (5) 
wb97xd/def2tzvp

>  <lot_method>  (5) 
wb97xd

>  <lot_basis>  (5) 
def2tzvp

>  <spin_multiplicity>  (5) 
2.0

>  <optical_isomers>  (5) 
1.0

>  <modes>  (5) 
IdealGasTranslation(mass=(43.0548, 'amu')),         NonlinearRotor(             inertia = ([13.4945, 59.9891, 67.2321

>  <frequency_value>  (5) 
unknown

>  <frequency_units>  (5) 
unknown

>  <frequency_list>  (5) 
unknown

>  <arkane_path>  (5) 
/home/calvin/Dropbox/PersonalFolders/Calvin/HAb_Converged/rxn_762/output/Species/rxn_762_C[CH]C/arkane/output.py

>  <path_exists>  (5) 
True

>  <E0_value>  (5) 
-310845.2184059608

>  <E0_units>  (5) 
kJ/mol

>  <thermo_class>  (5) 
NASA

>  <Cp0_value>  (5) 
33.257888

>  <Cp0_units>  (5) 
J/(mol*K)

>  <CpInf_value>  (5) 
232.805216

>  <CpInf_units>  (5) 
J/(mol*K)

>  <Tmin_value>  (5) 
10.0

>  <Tmin_units>  (5) 
K

>  <Tmax_value>  (5) 
3000.0

>  <Tmax_units>  (5) 
K

>  <polynomials>  (5) 
[{"name": "polynomial1", "class": "NASAPolynomial", "Tmin_value": 10.0, "Tmin_units": "K", "Tmax_value": 447.8128792552529, "Tmax_units": "K", "coeffs": [3.752012635379411, 0.026641862649172638, -7.746058003612534e-05, 2.1389576411497674e-07, -1.844633782932518e-10, -37386043.96321184, 8.05688024181999]}, {"name": "polynomial2", "class": "NASAPolynomial", "Tmin_value": 447.8128792552529, "Tmin_units": "K", "Tmax_value": 3000.0, "Tmax_units": "K", "coeffs": [0.3456331898922003, 0.0329396549778818, -1.7732866616299737e-05, 4.6556958792141865e-09, -4.78902486015414e-13, -37385496.94179907, 24.455396824893292]}]

>  <H298_value>  (5) 
-74289.9090718394

>  <H298_units>  (5) 
kcal/mol

>  <S298_value>  (5) 
70.4573159165227

>  <S298_units>  (5) 
cal/(mol*K)

>  <Cp_T_value_list>  (5) 
[17.99246870913784, 21.823762730245537, 25.70307457878351, 29.150647616604275, 34.84741547055869, 39.20602419681299, 45.99328941377369, 49.43494906715023, 51.132806782188474]

>  <Cp_T_units>  (5) 
cal/(mol*K)

>  <T_list>  (5) 
[300.0, 400.0, 500.0, 600.0, 800.0, 1000.0, 1500.0, 2000.0, 2400.0]

>  <T_units>  (5) 
K

>  <yaml_path>  (5) 
/home/calvin/Dropbox/PersonalFolders/Calvin/HAb_Converged/rxn_762/output/Species/rxn_762_C[CH]C/rxn_762_CCHC.yml

>  <frequencies_cm1>  (5) 
[105.22281605836, 112.68722910119999, 345.60850417028, 388.99411742204, 888.91751570336, 934.4593623456, 940.8456586931999, 1017.3988110405598, 1144.8637925504, 1173.26564383392, 1356.01672415508, 1400.16457277736, 1405.7130969159198, 1454.7502390860398, 1462.58546933616, 1465.42840125864, 1476.53231652108, 2938.8637074004, 2942.7366871208797, 3008.0211165581195, 3008.4194017066793, 3085.04122390724, 3085.8858631016, 3161.75918390228]

>  <ZPE_kJmol>  (5) 
229.10994966023972

>  <E_elec_kJmol>  (5) 
-311074.328355621

>  <E0_minus_Eelec_plus_ZPE_kJmol>  (5) 
0.0

>  <rxn>  (5) 
rxn_762

>  <species_type>  (5) 
r1

>  <species_folder>  (5) 
rxn_762_C[CH]C

>  <frequencies_cm1_list>  (5) 
[105.22281605836, 112.68722910119999, 345.60850417028, 388.99411742204, 888.91751570336, 934.4593623456, 940.8456586931999, 1017.3988110405598, 1144.8637925504, 1173.26564383392, 1356.01672415508, 1400.16457277736, 1405.7130969159198, 1454.7502390860398, 1462.58546933616, 1465.42840125864, 1476.53231652108, 2938.8637074004, 2942.7366871208797, 3008.0211165581195, 3008.4194017066793, 3085.04122390724, 3085.8858631016, 3161.75918390228]

>  <E0_kJmol>  (5) 
-310845

>  <H298_kJmol>  (5) 
-310829

$$$$
