
     RDKit          3D

 16 15  0  0  0  0  0  0  0  0999 V2000
    0.2441   -1.4715   -1.8931 C   0  0  0  0  0  0  0  0  0  1  0  0
   -0.4883   -0.6198   -1.1831 C   0  0  0  0  0  0  0  0  0  2  0  0
    0.0105    0.3828   -0.2079 C   0  0  0  0  0  0  0  0  0  3  0  0
    1.4907    0.3455    0.0999 C   0  0  0  0  0  0  0  0  0  4  0  0
   -0.9008    0.5509    0.9530 C   0  0  0  0  0  0  0  0  0  5  0  0
   -0.5457    0.7779    2.2120 C   0  0  0  0  0  0  0  0  0  6  0  0
   -0.2221   -2.1547   -2.5912 H   0  0  0  0  0  0  0  0  0  7  0  0
    1.3213   -1.5295   -1.7979 H   0  0  0  0  0  0  0  0  0  8  0  0
   -1.5666   -0.6245   -1.3229 H   0  0  0  0  0  0  0  0  0  9  0  0
   -0.1107    1.3268   -0.7394 H   0  0  0  0  0  0  0  0  0 10  0  0
    2.0762    0.3638   -0.8195 H   0  0  0  0  0  0  0  0  0 11  0  0
    1.7816    1.2159    0.6884 H   0  0  0  0  0  0  0  0  0 12  0  0
    1.7552   -0.5546    0.6605 H   0  0  0  0  0  0  0  0  0 13  0  0
   -1.9602    0.5007    0.7146 H   0  0  0  0  0  0  0  0  0 14  0  0
    0.4903    0.8361    2.5213 H   0  0  0  0  0  0  0  0  0 15  0  0
   -1.2937    0.9071    2.9834 H   0  0  0  0  0  0  0  0  0 16  0  0
  1  8  1  0
  1  7  1  0
  1  2  1  0
  2  9  1  0
  2  3  1  0
  3  4  1  0
  3  5  1  0
  3 10  1  0
  4 13  1  0
  4 12  1  0
  4 11  1  0
  5 14  1  0
  5  6  1  0
  6 15  1  0
  6 16  1  0
M  END
>  <rmg_smiles>  (1) 
[CH2][CH]C(C)[CH][CH2]

>  <rmg_adjacency_list>  (1) 
1  C u0 p0 c0 {2,S} {3,S} {4,S} {7,S}
2  C u0 p0 c0 {1,S} {8,S} {9,S} {10,S}
3  C u0 p0 c0 {1,S} {5,S} {11,S}
4  C u0 p0 c0 {1,S} {6,S} {12,S}
5  C u0 p0 c0 {3,S} {13,S} {14,S}
6  C u0 p0 c0 {4,S} {15,S} {16,S}
7  H u0 p0 c0 {1,S}
8  H u0 p0 c0 {2,S}
9  H u0 p0 c0 {2,S}
10 H u0 p0 c0 {2,S}
11 H u0 p0 c0 {3,S}
12 H u0 p0 c0 {4,S}
13 H u0 p0 c0 {5,S}
14 H u0 p0 c0 {5,S}
15 H u0 p0 c0 {6,S}
16 H u0 p0 c0 {6,S}


>  <multiplicity>  (1) 
1

>  <reaction>  (1) 
rxn_1190

>  <type>  (1) 
r1h

>  <role_mapnums>  (1) 
{"r1h_a": 3, "r1h_h": 10}

>  <role_mapidx>  (1) 
{"r1h_a": 2, "r1h_h": 9}

>  <ordered_mapped_smiles>  (1) 
[CH:1]([CH:2]([C:3]([C:4]([H:11])([H:12])[H:13])([CH:5]([CH:6]([H:15])[H:16])[H:14])[H:10])[H:9])([H:7])[H:8]

>  <mol_properties>  (1) 
{"2": {"label": "donator", "atom_type": "Cs"}, "9": {"label": "d_hydrogen", "atom_type": "H0"}}

>  <level_of_theory>  (1) 
wb97xd/def2tzvp

>  <lot_method>  (1) 
wb97xd

>  <lot_basis>  (1) 
def2tzvp

>  <spin_multiplicity>  (1) 
1.0

>  <optical_isomers>  (1) 
2.0

>  <modes>  (1) 
IdealGasTranslation(mass=(82.0782, 'amu')),         NonlinearRotor(             inertia = ([81.8176, 215.752, 270.221

>  <frequency_value>  (1) 
unknown

>  <frequency_units>  (1) 
unknown

>  <frequency_list>  (1) 
unknown

>  <arkane_path>  (1) 
/home/calvin/Dropbox/PersonalFolders/Calvin/HAb_Converged/rxn_1190/output/Species/rxn_1190_C=CC[C]C=C/arkane/output.py

>  <path_exists>  (1) 
True

>  <E0_value>  (1) 
-615627.5937373543

>  <E0_units>  (1) 
kJ/mol

>  <thermo_class>  (1) 
NASA

>  <Cp0_value>  (1) 
33.257888

>  <Cp0_units>  (1) 
J/(mol*K)

>  <CpInf_value>  (1) 
382.465712

>  <CpInf_units>  (1) 
J/(mol*K)

>  <Tmin_value>  (1) 
10.0

>  <Tmin_units>  (1) 
K

>  <Tmax_value>  (1) 
3000.0

>  <Tmax_units>  (1) 
K

>  <polynomials>  (1) 
[{"name": "polynomial1", "class": "NASAPolynomial", "Tmin_value": 10.0, "Tmin_units": "K", "Tmax_value": 757.01421466449, "Tmax_units": "K", "coeffs": [3.7333043859306807, 0.024971619873153182, 5.9953729741974984e-05, -9.768956274227311e-08, 4.2619255015878605e-11, -74042895.04148921, 11.39126299815016]}, {"name": "polynomial2", "class": "NASAPolynomial", "Tmin_value": 757.01421466449, "Tmin_units": "K", "Tmax_value": 3000.0, "Tmax_units": "K", "coeffs": [0.44469393851227684, 0.05690289093011388, -3.2156427053129826e-05, 8.824948176810319e-09, -9.439814340659815e-13, -74042814.17505449, 23.586950166217814]}]

>  <H298_value>  (1) 
-147133.40013016394

>  <H298_units>  (1) 
kcal/mol

>  <S298_value>  (1) 
83.43513409825523

>  <S298_units>  (1) 
cal/(mol*K)

>  <Cp_T_value_list>  (1) 
[28.473139475044146, 36.07469361244095, 43.043001816355165, 49.12797529668614, 58.65957774455763, 65.72114092256321, 76.41278682550626, 81.71522311412052, 84.39200509242544]

>  <Cp_T_units>  (1) 
cal/(mol*K)

>  <T_list>  (1) 
[300.0, 400.0, 500.0, 600.0, 800.0, 1000.0, 1500.0, 2000.0, 2400.0]

>  <T_units>  (1) 
K

>  <yaml_path>  (1) 
/home/calvin/Dropbox/PersonalFolders/Calvin/HAb_Converged/rxn_1190/output/Species/rxn_1190_C=CC[C]C=C/rxn_1190_C=CCCC=C.yml

>  <frequencies_cm1>  (1) 
[88.1720915088, 106.67861694619998, 273.49142433963993, 286.5592974036, 313.75942625612, 326.27794049448, 407.06115579895993, 569.8224418536, 651.92411833952, 700.3775667574399, 828.2270994451999, 911.8395127015199, 955.1839240413599, 957.3264234611999, 986.9918000435998, 1013.1206791861999, 1033.24781315912, 1040.35514296532, 1086.5012843157199, 1158.117074218, 1191.5112238291601, 1286.63957146712, 1315.0757576772398, 1326.50928823504, 1345.4965026448397, 1396.33966195412, 1439.56733454352, 1445.27379934444, 1485.5280672902798, 1492.32638275708, 1705.6973506201198, 1716.9454725742798, 3001.05112645832, 3015.16964827624, 3087.0944525179198, 3099.55803087372, 3107.7297434045195, 3116.0456626270397, 3118.744387857799, 3130.445730843079, 3201.84864420044, 3208.5027529755193]

>  <ZPE_kJmol>  (1) 
370.4126142688373

>  <E_elec_kJmol>  (1) 
-615998.0063516231

>  <E0_minus_Eelec_plus_ZPE_kJmol>  (1) 
0.0

>  <rxn>  (1) 
rxn_1190

>  <species_type>  (1) 
r1

>  <species_folder>  (1) 
rxn_1190_C=CC[C]C=C

>  <frequencies_cm1_list>  (1) 
[88.1720915088, 106.67861694619998, 273.49142433963993, 286.5592974036, 313.75942625612, 326.27794049448, 407.06115579895993, 569.8224418536, 651.92411833952, 700.3775667574399, 828.2270994451999, 911.8395127015199, 955.1839240413599, 957.3264234611999, 986.9918000435998, 1013.1206791861999, 1033.24781315912, 1040.35514296532, 1086.5012843157199, 1158.117074218, 1191.5112238291601, 1286.63957146712, 1315.0757576772398, 1326.50928823504, 1345.4965026448397, 1396.33966195412, 1439.56733454352, 1445.27379934444, 1485.5280672902798, 1492.32638275708, 1705.6973506201198, 1716.9454725742798, 3001.05112645832, 3015.16964827624, 3087.0944525179198, 3099.55803087372, 3107.7297434045195, 3116.0456626270397, 3118.744387857799, 3130.445730843079, 3201.84864420044, 3208.5027529755193]

>  <E0_kJmol>  (1) 
-615628

>  <H298_kJmol>  (1) 
-615606

$$$$

     RDKit          3D

  8  7  0  0  0  0  0  0  0  0999 V2000
    0.0814    1.3229    1.3818 C   0  0  0  0  0  2  0  0  0  1  0  0
    0.0278    0.4392    0.5603 C   0  0  0  0  0  2  0  0  0  2  0  0
   -0.0339   -0.6677   -0.2609 C   0  0  0  0  0  0  0  0  0  3  0  0
   -0.0673   -0.9322   -1.5487 C   0  0  0  0  0  0  0  0  0  4  0  0
    0.1264    2.1184    2.0859 H   0  0  0  0  0  0  0  0  0  5  0  0
   -0.0507   -0.1436   -2.2964 H   0  0  0  0  0  0  0  0  0  6  0  0
   -0.1116   -1.9573   -1.9020 H   0  0  0  0  0  0  0  0  0  7  0  0
   -0.0518   -1.5935    0.3141 H   0  0  0  0  0  0  0  0  0  8  0  0
  1  5  1  0
  1  2  1  0
  2  3  1  0
  3  4  1  0
  3  8  1  0
  4  7  1  0
  4  6  1  0
M  RAD  2   1   3   2   3
M  END
>  <rmg_smiles>  (2) 
[CH][C][CH][CH2]

>  <rmg_adjacency_list>  (2) 
1 C u0 p0 c0 {2,S} {3,S} {5,S}
2 C u0 p0 c0 {1,S} {6,S} {7,S}
3 C u0 p1 c0 {1,S} {4,S}
4 C u0 p1 c0 {3,S} {8,S}
5 H u0 p0 c0 {1,S}
6 H u0 p0 c0 {2,S}
7 H u0 p0 c0 {2,S}
8 H u0 p0 c0 {4,S}


>  <multiplicity>  (2) 
1

>  <reaction>  (2) 
rxn_1190

>  <type>  (2) 
r2h

>  <role_mapnums>  (2) 
{"r2h_a": 3, "r2h_h": 8}

>  <role_mapidx>  (2) 
{"r2h_a": 2, "r2h_h": 7}

>  <ordered_mapped_smiles>  (2) 
[C:1]([C:2][CH:3]([CH:4]([H:6])[H:7])[H:8])[H:5]

>  <mol_properties>  (2) 
{"2": {"label": "acceptor", "atom_type": "Cs"}, "7": {"label": "a_hydrogen", "atom_type": "H0"}}

>  <level_of_theory>  (2) 
wb97xd/def2tzvp

>  <lot_method>  (2) 
wb97xd

>  <lot_basis>  (2) 
def2tzvp

>  <spin_multiplicity>  (2) 
1.0

>  <optical_isomers>  (2) 
1.0

>  <modes>  (2) 
IdealGasTranslation(mass=(52.0313, 'amu')),         NonlinearRotor(             inertia = ([9.86559, 105.845, 115.711

>  <frequency_value>  (2) 
unknown

>  <frequency_units>  (2) 
unknown

>  <frequency_list>  (2) 
unknown

>  <arkane_path>  (2) 
/home/calvin/Dropbox/PersonalFolders/Calvin/HAb_Converged/rxn_1190/output/Species/rxn_1190_CtCC=C/arkane/output.py

>  <path_exists>  (2) 
True

>  <E0_value>  (2) 
-406091.886125891

>  <E0_units>  (2) 
kJ/mol

>  <thermo_class>  (2) 
NASA

>  <Cp0_value>  (2) 
33.257888

>  <Cp0_units>  (2) 
J/(mol*K)

>  <CpInf_value>  (2) 
182.918384

>  <CpInf_units>  (2) 
J/(mol*K)

>  <Tmin_value>  (2) 
10.0

>  <Tmin_units>  (2) 
K

>  <Tmax_value>  (2) 
3000.0

>  <Tmax_units>  (2) 
K

>  <polynomials>  (2) 
[{"name": "polynomial1", "class": "NASAPolynomial", "Tmin_value": 10.0, "Tmin_units": "K", "Tmax_value": 539.6924259091454, "Tmax_units": "K", "coeffs": [3.952165135673625, 0.002856988610718535, 7.748969027068091e-05, -1.4636771659515447e-07, 8.592251635550374e-11, -48841570.194759525, 7.59056634578395]}, {"name": "polynomial2", "class": "NASAPolynomial", "Tmin_value": 539.6924259091454, "Tmin_units": "K", "Tmax_value": 3000.0, "Tmax_units": "K", "coeffs": [2.1702296891625794, 0.026363759472425752, -1.64707651230591e-05, 5.0606479604362095e-09, -6.036458079288838e-13, -48841527.85434033, 13.698684547881204]}]

>  <H298_value>  (2) 
-97054.8281313212

>  <H298_units>  (2) 
kcal/mol

>  <S298_value>  (2) 
66.12779656879917

>  <S298_units>  (2) 
cal/(mol*K)

>  <Cp_T_value_list>  (2) 
[16.94566075459627, 20.518689246869094, 23.50323718540477, 25.98049414422314, 29.93477402200161, 32.8291008840918, 37.12176727992767, 39.42923508788264, 40.74274810859482]

>  <Cp_T_units>  (2) 
cal/(mol*K)

>  <T_list>  (2) 
[300.0, 400.0, 500.0, 600.0, 800.0, 1000.0, 1500.0, 2000.0, 2400.0]

>  <T_units>  (2) 
K

>  <yaml_path>  (2) 
/home/calvin/Dropbox/PersonalFolders/Calvin/HAb_Converged/rxn_1190/output/Species/rxn_1190_CtCC=C/rxn_1190_CtCC=C.yml

>  <frequencies_cm1>  (2) 
[225.237118496, 321.82126702179994, 559.30222034336, 675.23753350092, 692.86508481736, 707.3338228865999, 885.99904694236, 971.2114677782399, 1012.2485720505599, 1105.4198288723198, 1315.886061945, 1434.5613022452399, 1683.44831818332, 2214.2525494486795, 3131.88779776028, 3144.7221933233595, 3226.7002640735195, 3436.58967037932]

>  <ZPE_kJmol>  (2) 
159.96902072108773

>  <E_elec_kJmol>  (2) 
-406251.8551466121

>  <E0_minus_Eelec_plus_ZPE_kJmol>  (2) 
0.0

>  <rxn>  (2) 
rxn_1190

>  <species_type>  (2) 
p0

>  <species_folder>  (2) 
rxn_1190_CtCC=C

>  <frequencies_cm1_list>  (2) 
[225.237118496, 321.82126702179994, 559.30222034336, 675.23753350092, 692.86508481736, 707.3338228865999, 885.99904694236, 971.2114677782399, 1012.2485720505599, 1105.4198288723198, 1315.886061945, 1434.5613022452399, 1683.44831818332, 2214.2525494486795, 3131.88779776028, 3144.7221933233595, 3226.7002640735195, 3436.58967037932]

>  <E0_kJmol>  (2) 
-406092

>  <H298_kJmol>  (2) 
-406077

$$$$

     RDKit          3D

 23 21  0  0  0  0  0  0  0  0999 V2000
   -0.0910    3.4435    0.6282 C   0  0  0  0  0  0  0  0  0  1  0  0
   -0.1446    2.5598   -0.1933 C   0  0  0  0  0  0  0  0  0  2  0  0
   -0.2062    1.4530   -1.0145 C   0  0  0  0  0  3  0  0  0  3  0  0
   -0.2397    1.1884   -2.3022 C   0  0  0  0  0  0  0  0  0  4  0  0
   -0.0459    4.2391    1.3324 H   0  0  0  0  0  0  0  0  0  5  0  0
   -0.2230    1.9770   -3.0500 H   0  0  0  0  0  0  0  0  0  6  0  0
   -0.2839    0.1634   -2.6555 H   0  0  0  0  0  0  0  0  0  7  0  0
    0.1393   -2.7472   -1.3046 C   0  0  0  0  0  0  0  0  0  8  0  0
   -0.5931   -1.8956   -0.5947 C   0  0  0  0  0  0  0  0  0  9  0  0
   -0.0943   -0.8929    0.3805 C   0  0  0  0  0  0  0  0  0 10  0  0
    1.3859   -0.9302    0.6884 C   0  0  0  0  0  0  0  0  0 11  0  0
   -1.0056   -0.7248    1.5415 C   0  0  0  0  0  0  0  0  0 12  0  0
   -0.6505   -0.4979    2.8005 C   0  0  0  0  0  0  0  0  0 13  0  0
   -0.3269   -3.4304   -2.0028 H   0  0  0  0  0  0  0  0  0 14  0  0
    1.2165   -2.8052   -1.2094 H   0  0  0  0  0  0  0  0  0 15  0  0
   -1.6714   -1.9002   -0.7345 H   0  0  0  0  0  0  0  0  0 16  0  0
   -0.2310    0.1718   -0.2189 H   0  0  0  0  0  0  0  0  0 17  0  0
    1.9714   -0.9119   -0.2310 H   0  0  0  0  0  0  0  0  0 18  0  0
    1.6768   -0.0598    1.2769 H   0  0  0  0  0  0  0  0  0 19  0  0
    1.6504   -1.8303    1.2490 H   0  0  0  0  0  0  0  0  0 20  0  0
   -2.0650   -0.7751    1.3031 H   0  0  0  0  0  0  0  0  0 21  0  0
    0.3855   -0.4396    3.1098 H   0  0  0  0  0  0  0  0  0 22  0  0
   -1.3985   -0.3687    3.5719 H   0  0  0  0  0  0  0  0  0 23  0  0
  1  5  1  0
  1  2  1  0
  2  3  1  0
  3  4  1  0
  4  7  1  0
  4  6  1  0
  8  9  1  0
  8 15  1  0
  8 14  1  0
  9 16  1  0
  9 10  1  0
 10 11  1  0
 10 12  1  0
 10 17  1  0
 11 19  1  0
 11 20  1  0
 11 18  1  0
 12 21  1  0
 12 13  1  0
 13 23  1  0
 13 22  1  0
M  RAD  1   3   2
M  END
>  <rmg_smiles>  (3) 
[CH2][CH]C(C)[CH][CH2].[CH]C[C][CH2]

>  <rmg_adjacency_list>  (3) 
multiplicity 2
1  C u0 p0 c0 {2,S} {3,S} {4,S} {11,S}
2  C u0 p0 c0 {1,S} {12,S} {13,S} {14,S}
3  C u0 p0 c0 {1,S} {5,S} {15,S}
4  C u0 p0 c0 {1,S} {6,S} {16,S}
5  C u0 p0 c0 {3,S} {17,S} {18,S}
6  C u0 p0 c0 {4,S} {19,S} {20,S}
7  C u0 p0 c0 {8,S} {21,S} {22,S}
8  C u1 p1 c0 {7,S} {9,S}
9  C u0 p1 c0 {8,S} {10,S}
10 C u0 p1 c0 {9,S} {23,S}
11 H u0 p0 c0 {1,S}
12 H u0 p0 c0 {2,S}
13 H u0 p0 c0 {2,S}
14 H u0 p0 c0 {2,S}
15 H u0 p0 c0 {3,S}
16 H u0 p0 c0 {4,S}
17 H u0 p0 c0 {5,S}
18 H u0 p0 c0 {5,S}
19 H u0 p0 c0 {6,S}
20 H u0 p0 c0 {6,S}
21 H u0 p0 c0 {7,S}
22 H u0 p0 c0 {7,S}
23 H u0 p0 c0 {10,S}


>  <multiplicity>  (3) 
2

>  <reaction>  (3) 
rxn_1190

>  <type>  (3) 
ts

>  <role_mapnums>  (3) 
{"*2": 17, "*1": 10, "*3": 3, "*0": 9, "*4": 2}

>  <role_mapidx>  (3) 
{"*2": 16, "*1": 9, "*3": 2, "*0": 8, "*4": 1}

>  <ordered_mapped_smiles>  (3) 
[CH2:1]([CH2:2][CH:3][CH:4]([H:6])[H:7])[H:5].[CH:8]([CH:9]([C:10]([C:11]([H:18])([H:19])[H:20])([CH:12]([CH:13]([H:22])[H:23])[H:21])[H:17])[H:16])([H:14])[H:15]

>  <mol_properties>  (3) 
{"1": {"label": "*4", "atom_type": "C2s"}, "2": {"label": "*3", "atom_type": "C2s"}, "8": {"label": "*0", "atom_type": "Cs"}, "9": {"label": "*1", "atom_type": "Cs"}, "16": {"label": "*2", "atom_type": "H0"}}

>  <level_of_theory>  (3) 
wb97xd/def2tzvp

>  <lot_method>  (3) 
wb97xd

>  <lot_basis>  (3) 
def2tzvp

>  <spin_multiplicity>  (3) 
2.0

>  <optical_isomers>  (3) 
2.0

>  <modes>  (3) 
IdealGasTranslation(mass=(133.102, 'amu')),         NonlinearRotor(             inertia = ([350.928, 540.287, 765.552

>  <frequency_value>  (3) 
-1217.83

>  <frequency_units>  (3) 
cm^-1

>  <frequency_list>  (3) 
unknown

>  <arkane_path>  (3) 
/home/calvin/Dropbox/PersonalFolders/Calvin/HAb_Converged/rxn_1190/output/rxns/TS0/arkane/output.py

>  <path_exists>  (3) 
True

>  <E0_value>  (3) 
-1019970.0

>  <E0_units>  (3) 
kJ/mol

>  <thermo_class>  (3) 
unknown

>  <Cp0_value>  (3) 
unknown

>  <Cp0_units>  (3) 
unknown

>  <CpInf_value>  (3) 
unknown

>  <CpInf_units>  (3) 
unknown

>  <Tmin_value>  (3) 
unknown

>  <Tmin_units>  (3) 
unknown

>  <Tmax_value>  (3) 
unknown

>  <Tmax_units>  (3) 
unknown

>  <polynomials>  (3) 
unknown

>  <H298_value>  (3) 
unknown

>  <H298_units>  (3) 
unknown

>  <S298_value>  (3) 
unknown

>  <S298_units>  (3) 
unknown

>  <Cp_T_value_list>  (3) 
unknown

>  <Cp_T_units>  (3) 
unknown

>  <T_list>  (3) 
unknown

>  <T_units>  (3) 
unknown

>  <yaml_path>  (3) 
unknown

>  <frequencies_cm1>  (3) 
unknown

>  <ZPE_kJmol>  (3) 
unknown

>  <E_elec_kJmol>  (3) 
unknown

>  <E0_minus_Eelec_plus_ZPE_kJmol>  (3) 
unknown

>  <rxn>  (3) 
unknown

>  <species_type>  (3) 
unknown

>  <species_folder>  (3) 
unknown

>  <frequencies_cm1_list>  (3) 
[]

>  <ts_imag_freq_cm1>  (3) 
-1232.6184

>  <ts_freq_out_path>  (3) 
/home/calvin/Dropbox/PersonalFolders/Calvin/HAb_Converged/rxn_1190/output/rxns/TS0/geometry/freq.out

>  <E0_kJmol>  (3) 
-1.01997e+06

>  <H298_kJmol>  (3) 
unknown

$$$$

     RDKit          3D

 15 14  0  0  0  0  0  0  0  0999 V2000
    2.4381    0.5770   -0.2356 C   0  0  0  0  0  0  0  0  0  1  0  0
    1.4430   -0.3367   -0.1409 C   0  0  0  0  0  0  0  0  0  2  0  0
    0.0521   -0.0957   -0.0045 C   0  0  0  0  0  3  0  0  0  3  0  0
   -0.5167    1.2867    0.0548 C   0  0  0  0  0  0  0  0  0  4  0  0
   -0.8226   -1.2147    0.0778 C   0  0  0  0  0  0  0  0  0  5  0  0
   -2.1666   -1.1669    0.2092 C   0  0  0  0  0  0  0  0  0  6  0  0
    3.4666    0.2585   -0.3369 H   0  0  0  0  0  0  0  0  0  7  0  0
    2.2594    1.6438   -0.2152 H   0  0  0  0  0  0  0  0  0  8  0  0
    1.7306   -1.3845   -0.1719 H   0  0  0  0  0  0  0  0  0  9  0  0
   -1.2300    1.4469   -0.7583 H   0  0  0  0  0  0  0  0  0 10  0  0
    0.2481    2.0557   -0.0178 H   0  0  0  0  0  0  0  0  0 11  0  0
   -1.0592    1.4421    0.9914 H   0  0  0  0  0  0  0  0  0 12  0  0
   -0.3519   -2.1929    0.0292 H   0  0  0  0  0  0  0  0  0 13  0  0
   -2.7080   -0.2310    0.2646 H   0  0  0  0  0  0  0  0  0 14  0  0
   -2.7513   -2.0751    0.2638 H   0  0  0  0  0  0  0  0  0 15  0  0
  1  8  1  0
  1  7  1  0
  1  2  1  0
  2  9  1  0
  2  3  1  0
  3  4  1  0
  3  5  1  0
  4 12  1  0
  4 10  1  0
  4 11  1  0
  5  6  1  0
  5 13  1  0
  6 15  1  0
  6 14  1  0
M  RAD  1   3   2
M  END
>  <rmg_smiles>  (4) 
[CH2][CH][C](C)[CH][CH2]

>  <rmg_adjacency_list>  (4) 
multiplicity 2
1  C u0 p0 c0 {2,S} {7,S} {8,S} {9,S}
2  C u1 p0 c0 {1,S} {3,S} {4,S}
3  C u0 p0 c0 {2,S} {5,S} {10,S}
4  C u0 p0 c0 {2,S} {6,S} {11,S}
5  C u0 p0 c0 {3,S} {12,S} {13,S}
6  C u0 p0 c0 {4,S} {14,S} {15,S}
7  H u0 p0 c0 {1,S}
8  H u0 p0 c0 {1,S}
9  H u0 p0 c0 {1,S}
10 H u0 p0 c0 {3,S}
11 H u0 p0 c0 {4,S}
12 H u0 p0 c0 {5,S}
13 H u0 p0 c0 {5,S}
14 H u0 p0 c0 {6,S}
15 H u0 p0 c0 {6,S}


>  <multiplicity>  (4) 
2

>  <reaction>  (4) 
rxn_1190

>  <type>  (4) 
r1

>  <role_mapnums>  (4) 
{}

>  <role_mapidx>  (4) 
{}

>  <ordered_mapped_smiles>  (4) 
[CH:1]([CH:2]([C:3]([C:4]([H:10])([H:11])[H:12])[CH:5]([CH:6]([H:14])[H:15])[H:13])[H:9])([H:7])[H:8]

>  <level_of_theory>  (4) 
wb97xd/def2tzvp

>  <lot_method>  (4) 
wb97xd

>  <lot_basis>  (4) 
def2tzvp

>  <spin_multiplicity>  (4) 
2.0

>  <optical_isomers>  (4) 
1.0

>  <modes>  (4) 
IdealGasTranslation(mass=(81.0704, 'amu')),         NonlinearRotor(             inertia = ([62.5293, 224.796, 284.21

>  <frequency_value>  (4) 
unknown

>  <frequency_units>  (4) 
unknown

>  <frequency_list>  (4) 
unknown

>  <arkane_path>  (4) 
/home/calvin/Dropbox/PersonalFolders/Calvin/HAb_Converged/rxn_1190/output/Species/rxn_1190_C=C[C][C]C=C/arkane/output.py

>  <path_exists>  (4) 
True

>  <E0_value>  (4) 
-614016.405434086

>  <E0_units>  (4) 
kJ/mol

>  <thermo_class>  (4) 
NASA

>  <Cp0_value>  (4) 
33.257888

>  <Cp0_units>  (4) 
J/(mol*K)

>  <CpInf_value>  (4) 
357.522296

>  <CpInf_units>  (4) 
J/(mol*K)

>  <Tmin_value>  (4) 
10.0

>  <Tmin_units>  (4) 
K

>  <Tmax_value>  (4) 
3000.0

>  <Tmax_units>  (4) 
K

>  <polynomials>  (4) 
[{"name": "polynomial1", "class": "NASAPolynomial", "Tmin_value": 10.0, "Tmin_units": "K", "Tmax_value": 419.0689826855313, "Tmax_units": "K", "coeffs": [3.7461378399183536, 0.022464955908256024, 8.810794690126274e-05, -1.8449270689510127e-07, 1.148776845632381e-10, -73849113.49735299, 11.570077105248336]}, {"name": "polynomial2", "class": "NASAPolynomial", "Tmin_value": 419.0689826855313, "Tmin_units": "K", "Tmax_value": 3000.0, "Tmax_units": "K", "coeffs": [0.16809288681172943, 0.05661667084847684, -3.41312558204021e-05, 9.965368111618754e-09, -1.1262510033039744e-12, -73848813.6024703, 25.720243230921767]}]

>  <H298_value>  (4) 
-146748.3088248158

>  <H298_units>  (4) 
kcal/mol

>  <S298_value>  (4) 
83.69704340475995

>  <S298_units>  (4) 
cal/(mol*K)

>  <Cp_T_value_list>  (4) 
[28.545319179186908, 35.69564824876572, 41.96760480546441, 47.409581732443996, 56.15524022360577, 62.58234917827583, 71.99499165792618, 76.66511553325982, 79.18424304962427]

>  <Cp_T_units>  (4) 
cal/(mol*K)

>  <T_list>  (4) 
[300.0, 400.0, 500.0, 600.0, 800.0, 1000.0, 1500.0, 2000.0, 2400.0]

>  <T_units>  (4) 
K

>  <yaml_path>  (4) 
/home/calvin/Dropbox/PersonalFolders/Calvin/HAb_Converged/rxn_1190/output/Species/rxn_1190_C=C[C][C]C=C/rxn_1190_C=CCCC=C.yml

>  <frequencies_cm1>  (4) 
[55.7255858718, 142.91569847984, 243.59943724168, 250.04753645715996, 341.08316084439997, 359.56908532584, 490.81090876168, 546.8592429435199, 586.89376735912, 682.6813455877999, 764.7280861911601, 864.3131073018001, 877.42218227768, 957.0998129456399, 982.96774664608, 1004.23480018212, 1020.31727980156, 1028.45465740576, 1074.8823451542798, 1211.9885740533998, 1279.2781632040799, 1315.0139548093598, 1360.63133829012, 1400.4461191754801, 1420.0719632200398, 1441.723567934, 1468.0927915628, 1488.2405264916797, 1525.7960692067597, 1597.66593756588, 3009.75159685876, 3060.48488440292, 3115.2559593152396, 3122.0886097086404, 3125.7967817814397, 3133.8517555617996, 3139.09126536096, 3221.11053802304, 3224.1388785491595]

>  <ZPE_kJmol>  (4) 
334.5664415862221

>  <E_elec_kJmol>  (4) 
-614350.9718756722

>  <E0_minus_Eelec_plus_ZPE_kJmol>  (4) 
0.0

>  <rxn>  (4) 
rxn_1190

>  <species_type>  (4) 
p1

>  <species_folder>  (4) 
rxn_1190_C=C[C][C]C=C

>  <frequencies_cm1_list>  (4) 
[55.7255858718, 142.91569847984, 243.59943724168, 250.04753645715996, 341.08316084439997, 359.56908532584, 490.81090876168, 546.8592429435199, 586.89376735912, 682.6813455877999, 764.7280861911601, 864.3131073018001, 877.42218227768, 957.0998129456399, 982.96774664608, 1004.23480018212, 1020.31727980156, 1028.45465740576, 1074.8823451542798, 1211.9885740533998, 1279.2781632040799, 1315.0139548093598, 1360.63133829012, 1400.4461191754801, 1420.0719632200398, 1441.723567934, 1468.0927915628, 1488.2405264916797, 1525.7960692067597, 1597.66593756588, 3009.75159685876, 3060.48488440292, 3115.2559593152396, 3122.0886097086404, 3125.7967817814397, 3133.8517555617996, 3139.09126536096, 3221.11053802304, 3224.1388785491595]

>  <E0_kJmol>  (4) 
-614016

>  <H298_kJmol>  (4) 
-613995

$$$$

     RDKit          3D

  7  6  0  0  0  0  0  0  0  0999 V2000
    1.3002    0.7433    2.1279 C   0  0  0  0  0  0  0  0  0  1  0  0
    0.5758    0.3292    1.2319 C   0  0  0  0  0  0  0  0  0  2  0  0
   -0.2057   -0.1176    0.2652 C   0  0  0  0  0  3  0  0  0  3  0  0
   -0.9747   -0.5572   -0.6858 C   0  0  0  0  0  0  0  0  0  4  0  0
    1.9293    1.1030    2.9060 H   0  0  0  0  0  0  0  0  0  5  0  0
   -1.9977   -0.8727   -0.4932 H   0  0  0  0  0  0  0  0  0  6  0  0
   -0.6274   -0.6280   -1.7143 H   0  0  0  0  0  0  0  0  0  7  0  0
  1  5  1  0
  1  2  1  0
  2  3  1  0
  3  4  1  0
  4  7  1  0
  4  6  1  0
M  RAD  1   3   2
M  END
>  <rmg_smiles>  (5) 
[CH]C[C][CH2]

>  <rmg_adjacency_list>  (5) 
multiplicity 2
1 C u0 p0 c0 {2,S} {5,S} {6,S}
2 C u1 p1 c0 {1,S} {3,S}
3 C u0 p1 c0 {2,S} {4,S}
4 C u0 p1 c0 {3,S} {7,S}
5 H u0 p0 c0 {1,S}
6 H u0 p0 c0 {1,S}
7 H u0 p0 c0 {4,S}


>  <multiplicity>  (5) 
2

>  <reaction>  (5) 
rxn_1190

>  <type>  (5) 
r2

>  <role_mapnums>  (5) 
{}

>  <role_mapidx>  (5) 
{}

>  <ordered_mapped_smiles>  (5) 
[CH2:1]([CH2:2][CH:3][CH:4]([H:6])[H:7])[H:5]

>  <level_of_theory>  (5) 
wb97xd/def2tzvp

>  <lot_method>  (5) 
wb97xd

>  <lot_basis>  (5) 
def2tzvp

>  <spin_multiplicity>  (5) 
2.0

>  <optical_isomers>  (5) 
1.0

>  <modes>  (5) 
IdealGasTranslation(mass=(51.0235, 'amu')),         NonlinearRotor(             inertia = ([1.72772, 120.695, 122.423

>  <frequency_value>  (5) 
unknown

>  <frequency_units>  (5) 
unknown

>  <frequency_list>  (5) 
unknown

>  <arkane_path>  (5) 
/home/calvin/Dropbox/PersonalFolders/Calvin/HAb_Converged/rxn_1190/output/Species/rxn_1190_CtC[C]=C/arkane/output.py

>  <path_exists>  (5) 
True

>  <E0_value>  (5) 
-404373.411595965

>  <E0_units>  (5) 
kJ/mol

>  <thermo_class>  (5) 
NASA

>  <Cp0_value>  (5) 
33.257888

>  <Cp0_units>  (5) 
J/(mol*K)

>  <CpInf_value>  (5) 
157.97496800000002

>  <CpInf_units>  (5) 
J/(mol*K)

>  <Tmin_value>  (5) 
10.0

>  <Tmin_units>  (5) 
K

>  <Tmax_value>  (5) 
3000.0

>  <Tmax_units>  (5) 
K

>  <polynomials>  (5) 
[{"name": "polynomial1", "class": "NASAPolynomial", "Tmin_value": 10.0, "Tmin_units": "K", "Tmax_value": 324.93226259134735, "Tmax_units": "K", "coeffs": [3.8609566162366087, 0.012109208955520711, 9.288884241662323e-05, -3.603523434637311e-07, 3.9424643436642235e-10, -48634890.058021046, 7.523490676155964]}, {"name": "polynomial2", "class": "NASAPolynomial", "Tmin_value": 324.93226259134735, "Tmin_units": "K", "Tmax_value": 3000.0, "Tmax_units": "K", "coeffs": [4.571614488902504, 0.01908818583620549, -1.1931476325918439e-05, 3.6686757850678527e-09, -4.3673157574215903e-13, -48635019.266648516, 3.616273583899776]}]

>  <H298_value>  (5) 
-96643.6300947726

>  <H298_units>  (5) 
kcal/mol

>  <S298_value>  (5) 
69.25662789424544

>  <S298_units>  (5) 
cal/(mol*K)

>  <Cp_T_value_list>  (5) 
[18.515991249811975, 20.908328681459686, 22.98030850166979, 24.770584816602213, 27.633090177891578, 29.729142240007217, 32.84633491511711, 34.545164455161085, 35.53925150622892]

>  <Cp_T_units>  (5) 
cal/(mol*K)

>  <T_list>  (5) 
[300.0, 400.0, 500.0, 600.0, 800.0, 1000.0, 1500.0, 2000.0, 2400.0]

>  <T_units>  (5) 
K

>  <yaml_path>  (5) 
/home/calvin/Dropbox/PersonalFolders/Calvin/HAb_Converged/rxn_1190/output/Species/rxn_1190_CtC[C]=C/rxn_1190_CtCC=C.yml

>  <frequencies_cm1>  (5) 
[60.92389375904, 224.90063621532, 350.55273360068, 378.96831885484, 541.79827476268, 666.4752602325999, 890.0643022518001, 901.2506213380799, 969.5015884335598, 1424.29515919184, 1805.7699276884798, 2002.63952982756, 3064.40593302064, 3135.01227608088, 3426.46773401764]

>  <ZPE_kJmol>  (5) 
118.68768783670004

>  <E_elec_kJmol>  (5) 
-404492.09928380174

>  <E0_minus_Eelec_plus_ZPE_kJmol>  (5) 
0.0

>  <rxn>  (5) 
rxn_1190

>  <species_type>  (5) 
r0

>  <species_folder>  (5) 
rxn_1190_CtC[C]=C

>  <frequencies_cm1_list>  (5) 
[60.92389375904, 224.90063621532, 350.55273360068, 378.96831885484, 541.79827476268, 666.4752602325999, 890.0643022518001, 901.2506213380799, 969.5015884335598, 1424.29515919184, 1805.7699276884798, 2002.63952982756, 3064.40593302064, 3135.01227608088, 3426.46773401764]

>  <E0_kJmol>  (5) 
-404373

>  <H298_kJmol>  (5) 
-404357

$$$$
