
     RDKit          3D

  4  3  0  0  0  0  0  0  0  0999 V2000
   -0.0251   -0.0215   -0.0824 N   0  0  0  0  0  0  0  0  0  1  0  0
    0.0160    0.9147    0.3240 H   0  0  0  0  0  0  0  0  0  2  0  0
    0.9237   -0.3479    0.1086 H   0  0  0  0  0  0  0  0  0  3  0  0
   -0.6010   -0.4997    0.6125 H   0  0  0  0  0  0  0  0  0  4  0  0
  1  3  1  0
  1  2  1  0
  1  4  1  0
M  END
>  <rmg_smiles>  (1) 
N

>  <rmg_adjacency_list>  (1) 
1 N u0 p1 c0 {2,S} {3,S} {4,S}
2 H u0 p0 c0 {1,S}
3 H u0 p0 c0 {1,S}
4 H u0 p0 c0 {1,S}


>  <multiplicity>  (1) 
1

>  <reaction>  (1) 
rxn_494

>  <type>  (1) 
r1h

>  <role_mapnums>  (1) 
{"r1h_a": 1, "r1h_h": 2}

>  <role_mapidx>  (1) 
{"r1h_a": 0, "r1h_h": 1}

>  <ordered_mapped_smiles>  (1) 
[N:1]([H:2])([H:3])[H:4]

>  <mol_properties>  (1) 
{"0": {"label": "donator", "atom_type": "N3s"}, "1": {"label": "d_hydrogen", "atom_type": "H0"}}

>  <level_of_theory>  (1) 
wb97xd/def2tzvp

>  <lot_method>  (1) 
wb97xd

>  <lot_basis>  (1) 
def2tzvp

>  <spin_multiplicity>  (1) 
1.0

>  <optical_isomers>  (1) 
1.0

>  <modes>  (1) 
IdealGasTranslation(mass=(17.0266, 'amu')),         NonlinearRotor(             inertia = ([1.67808, 1.67808, 2.6816

>  <frequency_value>  (1) 
unknown

>  <frequency_units>  (1) 
unknown

>  <frequency_list>  (1) 
unknown

>  <arkane_path>  (1) 
/home/calvin/Dropbox/PersonalFolders/Calvin/HAb_Converged/rxn_494/output/Species/rxn_494_N/arkane/output.py

>  <path_exists>  (1) 
True

>  <E0_value>  (1) 
-148421.26364269105

>  <E0_units>  (1) 
kJ/mol

>  <thermo_class>  (1) 
NASA

>  <Cp0_value>  (1) 
33.257888

>  <Cp0_units>  (1) 
J/(mol*K)

>  <CpInf_value>  (1) 
83.14472

>  <CpInf_units>  (1) 
J/(mol*K)

>  <Tmin_value>  (1) 
10.0

>  <Tmin_units>  (1) 
K

>  <Tmax_value>  (1) 
3000.0

>  <Tmax_units>  (1) 
K

>  <polynomials>  (1) 
[{"name": "polynomial1", "class": "NASAPolynomial", "Tmin_value": 10.0, "Tmin_units": "K", "Tmax_value": 661.0804506617714, "Tmax_units": "K", "coeffs": [4.018065952450781, -0.0010594462951532533, 7.0068770418278475e-06, -1.9448375260802637e-09, -1.6903909714968277e-12, -17850955.574744247, 0.2630280077390306]}, {"name": "polynomial2", "class": "NASAPolynomial", "Tmin_value": 661.0804506617714, "Tmin_units": "K", "Tmax_value": 3000.0, "Tmax_units": "K", "coeffs": [2.4516557563251014, 0.005556461768624229, -1.5108534204519605e-06, 9.614541938565228e-11, 1.4295840769984746e-14, -17850685.932123393, 7.644744620409682]}]

>  <H298_value>  (1) 
-35471.13537017314

>  <H298_units>  (1) 
kcal/mol

>  <S298_value>  (1) 
45.962578608532034

>  <S298_units>  (1) 
cal/(mol*K)

>  <Cp_T_value_list>  (1) 
[8.474736662297328, 9.037108019992646, 9.720038934265556, 10.464061758445943, 11.893353433479012, 13.130875057040445, 15.468001463496948, 16.92913622142614, 17.662419085416545]

>  <Cp_T_units>  (1) 
cal/(mol*K)

>  <T_list>  (1) 
[300.0, 400.0, 500.0, 600.0, 800.0, 1000.0, 1500.0, 2000.0, 2400.0]

>  <T_units>  (1) 
K

>  <yaml_path>  (1) 
/home/calvin/Dropbox/PersonalFolders/Calvin/HAb_Converged/rxn_494/output/Species/rxn_494_N/rxn_494_N.yml

>  <frequencies_cm1>  (1) 
[1006.65197901476, 1653.7074047623996, 1654.02328608712, 3472.52460455888, 3599.6737047439997, 3600.5252109236794]

>  <ZPE_kJmol>  (1) 
89.64282786797604

>  <E_elec_kJmol>  (1) 
-148510.906470559

>  <E0_minus_Eelec_plus_ZPE_kJmol>  (1) 
0.0

>  <rxn>  (1) 
rxn_494

>  <species_type>  (1) 
r1

>  <species_folder>  (1) 
rxn_494_N

>  <frequencies_cm1_list>  (1) 
[1006.65197901476, 1653.7074047623996, 1654.02328608712, 3472.52460455888, 3599.6737047439997, 3600.5252109236794]

>  <E0_kJmol>  (1) 
-148421

>  <H298_kJmol>  (1) 
-148411

$$$$

     RDKit          3D

  5  4  0  0  0  0  0  0  0  0999 V2000
    0.0036    0.0215    0.0174 C   0  0  0  0  0  0  0  0  0  1  0  0
    0.7187    0.6190   -0.5415 H   0  0  0  0  0  0  0  0  0  2  0  0
    0.3579   -0.2569    1.0054 H   0  0  0  0  0  0  0  0  0  3  0  0
   -0.9956    0.4483    0.0251 H   0  0  0  0  0  0  0  0  0  4  0  0
   -0.1025   -0.8824   -0.5759 H   0  0  0  0  0  0  0  0  0  5  0  0
  1  3  1  0
  1  5  1  0
  1  4  1  0
  1  2  1  0
M  END
>  <rmg_smiles>  (2) 
C

>  <rmg_adjacency_list>  (2) 
1 C u0 p0 c0 {2,S} {3,S} {4,S} {5,S}
2 H u0 p0 c0 {1,S}
3 H u0 p0 c0 {1,S}
4 H u0 p0 c0 {1,S}
5 H u0 p0 c0 {1,S}


>  <multiplicity>  (2) 
1

>  <reaction>  (2) 
rxn_494

>  <type>  (2) 
r2h

>  <role_mapnums>  (2) 
{"r2h_a": 1, "r2h_h": 5}

>  <role_mapidx>  (2) 
{"r2h_a": 0, "r2h_h": 4}

>  <ordered_mapped_smiles>  (2) 
[C:1]([H:2])([H:3])([H:4])[H:5]

>  <mol_properties>  (2) 
{"0": {"label": "acceptor", "atom_type": "Cs"}, "4": {"label": "a_hydrogen", "atom_type": "H0"}}

>  <level_of_theory>  (2) 
wb97xd/def2tzvp

>  <lot_method>  (2) 
wb97xd

>  <lot_basis>  (2) 
def2tzvp

>  <spin_multiplicity>  (2) 
1.0

>  <optical_isomers>  (2) 
1.0

>  <modes>  (2) 
IdealGasTranslation(mass=(16.0313, 'amu')),         NonlinearRotor(             inertia = ([3.18679, 3.18679, 3.18679

>  <frequency_value>  (2) 
unknown

>  <frequency_units>  (2) 
unknown

>  <frequency_list>  (2) 
unknown

>  <arkane_path>  (2) 
/home/calvin/Dropbox/PersonalFolders/Calvin/HAb_Converged/rxn_494/output/Species/rxn_494_C/arkane/output.py

>  <path_exists>  (2) 
True

>  <E0_value>  (2) 
-106268.5262916272

>  <E0_units>  (2) 
kJ/mol

>  <thermo_class>  (2) 
NASA

>  <Cp0_value>  (2) 
33.257888

>  <Cp0_units>  (2) 
J/(mol*K)

>  <CpInf_value>  (2) 
108.088136

>  <CpInf_units>  (2) 
J/(mol*K)

>  <Tmin_value>  (2) 
10.0

>  <Tmin_units>  (2) 
K

>  <Tmax_value>  (2) 
3000.0

>  <Tmax_units>  (2) 
K

>  <polynomials>  (2) 
[{"name": "polynomial1", "class": "NASAPolynomial", "Tmin_value": 10.0, "Tmin_units": "K", "Tmax_value": 616.7595780986624, "Tmax_units": "K", "coeffs": [4.041420799946622, -0.002477807655966685, 1.1290457802459216e-05, 3.700688819348292e-09, -9.366412561864162e-12, -12781153.318458663, -0.42637433538586406]}, {"name": "polynomial2", "class": "NASAPolynomial", "Tmin_value": 616.7595780986624, "Tmin_units": "K", "Tmax_value": 3000.0, "Tmax_units": "K", "coeffs": [0.6800320423470843, 0.011684066325645743, -4.5749540261290126e-06, 7.694671628924811e-10, -3.8768177461555664e-14, -12780593.404419335, 15.343675764562182]}]

>  <H298_value>  (2) 
-25396.41264990868

>  <H298_units>  (2) 
kcal/mol

>  <S298_value>  (2) 
44.46392088520575

>  <S298_units>  (2) 
cal/(mol*K)

>  <Cp_T_value_list>  (2) 
[8.621039065772948, 9.645572285350525, 10.934239595808906, 12.330144838344452, 14.859142397339834, 16.9306880471269, 20.49440393107996, 22.423230884533538, 23.291918246513866]

>  <Cp_T_units>  (2) 
cal/(mol*K)

>  <T_list>  (2) 
[300.0, 400.0, 500.0, 600.0, 800.0, 1000.0, 1500.0, 2000.0, 2400.0]

>  <T_units>  (2) 
K

>  <yaml_path>  (2) 
/home/calvin/Dropbox/PersonalFolders/Calvin/HAb_Converged/rxn_494/output/Species/rxn_494_C/rxn_494_C.yml

>  <frequencies_cm1>  (2) 
[1326.5504901469599, 1326.5504901469599, 1326.5504901469599, 1542.24249904816, 1542.24249904816, 3008.8382878112, 3127.32125252248, 3127.32125252248, 3127.32125252248]

>  <ZPE_kJmol>  (2) 
116.36640738144024

>  <E_elec_kJmol>  (2) 
-106384.89269900863

>  <E0_minus_Eelec_plus_ZPE_kJmol>  (2) 
0.0

>  <rxn>  (2) 
rxn_494

>  <species_type>  (2) 
p0

>  <species_folder>  (2) 
rxn_494_C

>  <frequencies_cm1_list>  (2) 
[1326.5504901469599, 1326.5504901469599, 1326.5504901469599, 1542.24249904816, 1542.24249904816, 3008.8382878112, 3127.32125252248, 3127.32125252248, 3127.32125252248]

>  <E0_kJmol>  (2) 
-106269

>  <H298_kJmol>  (2) 
-106259

$$$$

     RDKit          3D

  8  6  0  0  0  0  0  0  0  0999 V2000
   -0.0445    1.1833    0.4178 C   0  0  0  0  0  3  0  0  0  1  0  0
    0.6706    1.7809   -0.1411 H   0  0  0  0  0  0  0  0  0  2  0  0
    0.3098    0.9049    1.4057 H   0  0  0  0  0  0  0  0  0  3  0  0
   -1.0437    1.6102    0.4255 H   0  0  0  0  0  0  0  0  0  4  0  0
   -0.2234   -1.0717   -0.8030 N   0  0  0  0  0  0  0  0  0  5  0  0
   -0.1721    0.0959   -0.2961 H   0  0  0  0  0  0  0  0  0  6  0  0
    0.7254   -1.3982   -0.6120 H   0  0  0  0  0  0  0  0  0  7  0  0
   -0.7994   -1.5499   -0.1081 H   0  0  0  0  0  0  0  0  0  8  0  0
  1  4  1  0
  1  3  1  0
  1  2  1  0
  5  6  1  0
  5  7  1  0
  5  8  1  0
M  RAD  1   1   2
M  END
>  <rmg_smiles>  (3) 
[CH3].N

>  <rmg_adjacency_list>  (3) 
multiplicity 2
1 N u0 p1 c0 {6,S} {7,S} {8,S}
2 C u1 p0 c0 {3,S} {4,S} {5,S}
3 H u0 p0 c0 {2,S}
4 H u0 p0 c0 {2,S}
5 H u0 p0 c0 {2,S}
6 H u0 p0 c0 {1,S}
7 H u0 p0 c0 {1,S}
8 H u0 p0 c0 {1,S}


>  <multiplicity>  (3) 
2

>  <reaction>  (3) 
rxn_494

>  <type>  (3) 
ts

>  <role_mapnums>  (3) 
{"*2": 6, "*1": 5, "*3": 1, "*0": 7, "*4": 2}

>  <role_mapidx>  (3) 
{"*2": 5, "*1": 4, "*3": 0, "*0": 6, "*4": 1}

>  <ordered_mapped_smiles>  (3) 
[C:1]([H:2])([H:3])[H:4].[N:5]([H:6])([H:7])[H:8]

>  <mol_properties>  (3) 
{"0": {"label": "*3", "atom_type": "Cs"}, "1": {"label": "*4", "atom_type": "H0"}, "4": {"label": "*1", "atom_type": "N3s"}, "5": {"label": "*2", "atom_type": "H0"}, "6": {"label": "*0", "atom_type": "H0"}}

>  <level_of_theory>  (3) 
wb97xd/def2tzvp

>  <lot_method>  (3) 
wb97xd

>  <lot_basis>  (3) 
def2tzvp

>  <spin_multiplicity>  (3) 
2.0

>  <optical_isomers>  (3) 
1.0

>  <modes>  (3) 
IdealGasTranslation(mass=(32.05, 'amu')),         NonlinearRotor(             inertia = ([5.29716, 56.8553, 57.495

>  <frequency_value>  (3) 
-1758.65

>  <frequency_units>  (3) 
cm^-1

>  <frequency_list>  (3) 
unknown

>  <arkane_path>  (3) 
/home/calvin/Dropbox/PersonalFolders/Calvin/HAb_Converged/rxn_494/output/rxns/TS0/arkane/output.py

>  <path_exists>  (3) 
True

>  <E0_value>  (3) 
-252885.0

>  <E0_units>  (3) 
kJ/mol

>  <thermo_class>  (3) 
unknown

>  <Cp0_value>  (3) 
unknown

>  <Cp0_units>  (3) 
unknown

>  <CpInf_value>  (3) 
unknown

>  <CpInf_units>  (3) 
unknown

>  <Tmin_value>  (3) 
unknown

>  <Tmin_units>  (3) 
unknown

>  <Tmax_value>  (3) 
unknown

>  <Tmax_units>  (3) 
unknown

>  <polynomials>  (3) 
unknown

>  <H298_value>  (3) 
unknown

>  <H298_units>  (3) 
unknown

>  <S298_value>  (3) 
unknown

>  <S298_units>  (3) 
unknown

>  <Cp_T_value_list>  (3) 
unknown

>  <Cp_T_units>  (3) 
unknown

>  <T_list>  (3) 
unknown

>  <T_units>  (3) 
unknown

>  <yaml_path>  (3) 
unknown

>  <frequencies_cm1>  (3) 
unknown

>  <ZPE_kJmol>  (3) 
unknown

>  <E_elec_kJmol>  (3) 
unknown

>  <E0_minus_Eelec_plus_ZPE_kJmol>  (3) 
unknown

>  <rxn>  (3) 
unknown

>  <species_type>  (3) 
unknown

>  <species_folder>  (3) 
unknown

>  <frequencies_cm1_list>  (3) 
[]

>  <ts_imag_freq_cm1>  (3) 
-1780.0086

>  <ts_freq_out_path>  (3) 
/home/calvin/Dropbox/PersonalFolders/Calvin/HAb_Converged/rxn_494/output/rxns/TS0/geometry/freq.out

>  <E0_kJmol>  (3) 
-252885

>  <H298_kJmol>  (3) 
unknown

$$$$

     RDKit          3D

  3  2  0  0  0  0  0  0  0  0999 V2000
    0.0002    0.4233    0.0000 N   0  0  0  0  0  2  0  0  0  1  0  0
   -0.8051   -0.2112    0.0000 H   0  0  0  0  0  0  0  0  0  2  0  0
    0.8049   -0.2121    0.0000 H   0  0  0  0  0  0  0  0  0  3  0  0
  1  3  1  0
  1  2  1  0
M  RAD  1   1   2
M  END
>  <rmg_smiles>  (4) 
[NH2]

>  <rmg_adjacency_list>  (4) 
multiplicity 2
1 N u1 p1 c0 {2,S} {3,S}
2 H u0 p0 c0 {1,S}
3 H u0 p0 c0 {1,S}


>  <multiplicity>  (4) 
2

>  <reaction>  (4) 
rxn_494

>  <type>  (4) 
r1

>  <role_mapnums>  (4) 
{}

>  <role_mapidx>  (4) 
{}

>  <ordered_mapped_smiles>  (4) 
[N:1]([H:2])[H:3]

>  <level_of_theory>  (4) 
wb97xd/def2tzvp

>  <lot_method>  (4) 
wb97xd

>  <lot_basis>  (4) 
def2tzvp

>  <spin_multiplicity>  (4) 
2.0

>  <optical_isomers>  (4) 
1.0

>  <modes>  (4) 
IdealGasTranslation(mass=(16.0187, 'amu')),         NonlinearRotor(             inertia = ([0.710442, 1.30616, 2.0166

>  <frequency_value>  (4) 
unknown

>  <frequency_units>  (4) 
unknown

>  <frequency_list>  (4) 
unknown

>  <arkane_path>  (4) 
/home/calvin/Dropbox/PersonalFolders/Calvin/HAb_Converged/rxn_494/output/Species/rxn_494_[NH2]/arkane/output.py

>  <path_exists>  (4) 
True

>  <E0_value>  (4) 
-146665.82219964045

>  <E0_units>  (4) 
kJ/mol

>  <thermo_class>  (4) 
NASA

>  <Cp0_value>  (4) 
33.257888

>  <Cp0_units>  (4) 
J/(mol*K)

>  <CpInf_value>  (4) 
58.201304

>  <CpInf_units>  (4) 
J/(mol*K)

>  <Tmin_value>  (4) 
10.0

>  <Tmin_units>  (4) 
K

>  <Tmax_value>  (4) 
3000.0

>  <Tmax_units>  (4) 
K

>  <polynomials>  (4) 
[{"name": "polynomial1", "class": "NASAPolynomial", "Tmin_value": 10.0, "Tmin_units": "K", "Tmax_value": 785.762025652844, "Tmax_units": "K", "coeffs": [4.006150952110655, -0.0003084550413445115, 1.1919167642356156e-06, 1.4835268864917173e-09, -1.3501682773251204e-12, -17639824.212471265, 0.5976393950121619]}, {"name": "polynomial2", "class": "NASAPolynomial", "Tmin_value": 785.762025652844, "Tmin_units": "K", "Tmax_value": 3000.0, "Tmax_units": "K", "coeffs": [3.2706683171239272, 0.0018199930208633956, 2.1290206946552888e-07, -3.0253090271967345e-10, 5.0619779589579903e-14, -17639658.754270043, 4.285961361161453]}]

>  <H298_value>  (4) 
-35051.60272998557

>  <H298_units>  (4) 
kcal/mol

>  <S298_value>  (4) 
46.48569697774424

>  <S298_units>  (4) 
cal/(mol*K)

>  <Cp_T_value_list>  (4) 
[8.048197877278941, 8.214827565402967, 8.447531305278195, 8.735020460220388, 9.397018833396599, 10.038676259975528, 11.356703010007145, 12.225159042044737, 12.643051079877377]

>  <Cp_T_units>  (4) 
cal/(mol*K)

>  <T_list>  (4) 
[300.0, 400.0, 500.0, 600.0, 800.0, 1000.0, 1500.0, 2000.0, 2400.0]

>  <T_units>  (4) 
K

>  <yaml_path>  (4) 
/home/calvin/Dropbox/PersonalFolders/Calvin/HAb_Converged/rxn_494/output/Species/rxn_494_[NH2]/rxn_494_NH2.yml

>  <frequencies_cm1>  (4) 
[1514.64408504708, 3360.6064778135196, 3454.89705324244]

>  <ZPE_kJmol>  (4) 
49.8253618406256

>  <E_elec_kJmol>  (4) 
-146715.64756148108

>  <E0_minus_Eelec_plus_ZPE_kJmol>  (4) 
0.0

>  <rxn>  (4) 
rxn_494

>  <species_type>  (4) 
p1

>  <species_folder>  (4) 
rxn_494_[NH2]

>  <frequencies_cm1_list>  (4) 
[1514.64408504708, 3360.6064778135196, 3454.89705324244]

>  <E0_kJmol>  (4) 
-146666

>  <H298_kJmol>  (4) 
-146656

$$$$

     RDKit          3D

  4  3  0  0  0  0  0  0  0  0999 V2000
    0.0000    0.0000    0.0000 C   0  0  0  0  0  3  0  0  0  1  0  0
    1.0638   -0.1747    0.0540 H   0  0  0  0  0  0  0  0  0  2  0  0
   -0.6833   -0.8351   -0.0280 H   0  0  0  0  0  0  0  0  0  3  0  0
   -0.3805    1.0098   -0.0260 H   0  0  0  0  0  0  0  0  0  4  0  0
  1  3  1  0
  1  4  1  0
  1  2  1  0
M  RAD  1   1   2
M  END
>  <rmg_smiles>  (5) 
[CH3]

>  <rmg_adjacency_list>  (5) 
multiplicity 2
1 C u1 p0 c0 {2,S} {3,S} {4,S}
2 H u0 p0 c0 {1,S}
3 H u0 p0 c0 {1,S}
4 H u0 p0 c0 {1,S}


>  <multiplicity>  (5) 
2

>  <reaction>  (5) 
rxn_494

>  <type>  (5) 
r2

>  <role_mapnums>  (5) 
{}

>  <role_mapidx>  (5) 
{}

>  <ordered_mapped_smiles>  (5) 
[C:1]([H:2])([H:3])[H:4]

>  <level_of_theory>  (5) 
wb97xd/def2tzvp

>  <lot_method>  (5) 
wb97xd

>  <lot_basis>  (5) 
def2tzvp

>  <spin_multiplicity>  (5) 
2.0

>  <optical_isomers>  (5) 
1.0

>  <modes>  (5) 
IdealGasTranslation(mass=(15.0235, 'amu')),         NonlinearRotor(             inertia = ([1.76141, 1.76141, 3.52282

>  <frequency_value>  (5) 
unknown

>  <frequency_units>  (5) 
unknown

>  <frequency_list>  (5) 
unknown

>  <arkane_path>  (5) 
/home/calvin/Dropbox/PersonalFolders/Calvin/HAb_Converged/rxn_494/output/Species/rxn_494_[CH3]/arkane/output.py

>  <path_exists>  (5) 
True

>  <E0_value>  (5) 
-104520.13119505512

>  <E0_units>  (5) 
kJ/mol

>  <thermo_class>  (5) 
NASA

>  <Cp0_value>  (5) 
33.257888

>  <Cp0_units>  (5) 
J/(mol*K)

>  <CpInf_value>  (5) 
83.14472

>  <CpInf_units>  (5) 
J/(mol*K)

>  <Tmin_value>  (5) 
10.0

>  <Tmin_units>  (5) 
K

>  <Tmax_value>  (5) 
3000.0

>  <Tmax_units>  (5) 
K

>  <polynomials>  (5) 
[{"name": "polynomial1", "class": "NASAPolynomial", "Tmin_value": 10.0, "Tmin_units": "K", "Tmax_value": 646.6680568167106, "Tmax_units": "K", "coeffs": [3.9912271000461548, 0.0004274218009639198, 9.38132315134313e-06, -1.0944874554220949e-08, 4.263406085556096e-12, -12570867.748368958, 0.20527673099681187]}, {"name": "polynomial2", "class": "NASAPolynomial", "Tmin_value": 646.6680568167106, "Tmin_units": "K", "Tmax_value": 3000.0, "Tmax_units": "K", "coeffs": [3.2488827598675174, 0.0050187516265713635, -1.2675301815554908e-06, 3.215102013021586e-11, 2.0164394281080815e-14, -12570771.728238096, 3.4631324604304954]}]

>  <H298_value>  (5) 
-24978.383291331436

>  <H298_units>  (5) 
kcal/mol

>  <S298_value>  (5) 
46.49953999396709

>  <S298_units>  (5) 
cal/(mol*K)

>  <Cp_T_value_list>  (5) 
[9.345424201068383, 10.07887042200736, 10.827537754048599, 11.552428339520182, 12.871902382304132, 14.014614114932202, 16.167234911840477, 17.479674567657305, 18.096247059343543]

>  <Cp_T_units>  (5) 
cal/(mol*K)

>  <T_list>  (5) 
[300.0, 400.0, 500.0, 600.0, 800.0, 1000.0, 1500.0, 2000.0, 2400.0]

>  <T_units>  (5) 
K

>  <yaml_path>  (5) 
/home/calvin/Dropbox/PersonalFolders/Calvin/HAb_Converged/rxn_494/output/Species/rxn_494_[CH3]/rxn_494_CH3.yml

>  <frequencies_cm1>  (5) 
[520.22220688724, 1393.4280601784399, 1393.43492716376, 3088.8592677451597, 3268.6163424668, 3268.6232094521197]

>  <ZPE_kJmol>  (5) 
77.35764153782172

>  <E_elec_kJmol>  (5) 
-104597.48883659294

>  <E0_minus_Eelec_plus_ZPE_kJmol>  (5) 
0.0

>  <rxn>  (5) 
rxn_494

>  <species_type>  (5) 
r0

>  <species_folder>  (5) 
rxn_494_[CH3]

>  <frequencies_cm1_list>  (5) 
[520.22220688724, 1393.4280601784399, 1393.43492716376, 3088.8592677451597, 3268.6163424668, 3268.6232094521197]

>  <E0_kJmol>  (5) 
-104520

>  <H298_kJmol>  (5) 
-104510

$$$$
