
     RDKit          3D

  7  7  0  0  0  0  0  0  0  0999 V2000
    0.4670   -0.8469    0.6106 C   0  0  0  0  0  0  0  0  0  1  0  0
    1.0756   -0.1212   -0.4442 C   0  0  0  0  0  0  0  0  0  2  0  0
    0.2089    0.7464   -0.8631 N   0  0  0  0  0  0  0  0  0  3  0  0
   -0.9001    0.5744   -0.1085 O   0  0  0  0  0  0  0  0  0  4  0  0
   -0.7256   -0.4237    0.8046 N   0  0  0  0  0  0  0  0  0  5  0  0
    0.9020   -1.6283    1.2336 H   0  0  0  0  0  0  0  0  0  6  0  0
    2.0577   -0.2004   -0.8767 H   0  0  0  0  0  0  0  0  0  7  0  0
  1  5  1  0
  1  6  1  0
  1  2  1  0
  2  3  1  0
  2  7  1  0
  3  4  1  0
  4  5  1  0
M  END
>  <rmg_smiles>  (1) 
[CH]1[CH][N]O[N]1

>  <rmg_adjacency_list>  (1) 
1 O u0 p2 c0 {2,S} {3,S}
2 N u0 p1 c0 {1,S} {5,S}
3 N u0 p1 c0 {1,S} {4,S}
4 C u0 p0 c0 {3,S} {5,S} {6,S}
5 C u0 p0 c0 {2,S} {4,S} {7,S}
6 H u0 p0 c0 {4,S}
7 H u0 p0 c0 {5,S}


>  <multiplicity>  (1) 
1

>  <reaction>  (1) 
rxn_3178

>  <type>  (1) 
r1h

>  <role_mapnums>  (1) 
{"r1h_a": 1, "r1h_h": 6}

>  <role_mapidx>  (1) 
{"r1h_a": 0, "r1h_h": 5}

>  <ordered_mapped_smiles>  (1) 
[CH:1]1([H:6])[CH:2]([H:7])[NH:3][O:4][NH:5]1

>  <mol_properties>  (1) 
{"0": {"label": "donator", "atom_type": "Cs"}, "5": {"label": "d_hydrogen", "atom_type": "H0"}}

>  <level_of_theory>  (1) 
wb97xd/def2tzvp

>  <lot_method>  (1) 
wb97xd

>  <lot_basis>  (1) 
def2tzvp

>  <spin_multiplicity>  (1) 
1.0

>  <optical_isomers>  (1) 
1.0

>  <modes>  (1) 
IdealGasTranslation(mass=(70.0167, 'amu')),         NonlinearRotor(             inertia = ([47.3682, 50.8569, 98.2251

>  <frequency_value>  (1) 
unknown

>  <frequency_units>  (1) 
unknown

>  <frequency_list>  (1) 
unknown

>  <arkane_path>  (1) 
/home/calvin/Dropbox/PersonalFolders/Calvin/ATLAS_Converged/NonRMG/rxn_3178/output/Species/rxn_3178_r2_c1cnon1/arkane/output.py

>  <path_exists>  (1) 
True

>  <E0_value>  (1) 
-687914.4552594472

>  <E0_units>  (1) 
kJ/mol

>  <thermo_class>  (1) 
NASA

>  <Cp0_value>  (1) 
33.257888

>  <Cp0_units>  (1) 
J/(mol*K)

>  <CpInf_value>  (1) 
157.97496800000002

>  <CpInf_units>  (1) 
J/(mol*K)

>  <Tmin_value>  (1) 
10.0

>  <Tmin_units>  (1) 
K

>  <Tmax_value>  (1) 
3000.0

>  <Tmax_units>  (1) 
K

>  <polynomials>  (1) 
[{"name": "polynomial1", "class": "NASAPolynomial", "Tmin_value": 10.0, "Tmin_units": "K", "Tmax_value": 687.0418021169427, "Tmax_units": "K", "coeffs": [4.186634696200343, -0.014087481636653194, 0.00012022853035245686, -1.7446144770749393e-07, 8.147346261307798e-11, -82737000.6404736, 7.954835377720996]}, {"name": "polynomial2", "class": "NASAPolynomial", "Tmin_value": 687.0418021169427, "Tmin_units": "K", "Tmax_value": 3000.0, "Tmax_units": "K", "coeffs": [0.6684580523827474, 0.027910092343641075, -1.843575118706941e-05, 5.669641792730874e-09, -6.577009715755277e-13, -82737024.9849672, 19.912075120582738]}]

>  <H298_value>  (1) 
-164412.76915744867

>  <H298_units>  (1) 
kcal/mol

>  <S298_value>  (1) 
62.73307169225767

>  <S298_units>  (1) 
cal/(mol*K)

>  <Cp_T_value_list>  (1) 
[13.374761992364308, 17.30537893342629, 20.834741198077385, 23.631272869263583, 27.485278558316487, 30.115597908132585, 33.50149225016686, 34.934209533090446, 35.80735714816683]

>  <Cp_T_units>  (1) 
cal/(mol*K)

>  <T_list>  (1) 
[300.0, 400.0, 500.0, 600.0, 800.0, 1000.0, 1500.0, 2000.0, 2400.0]

>  <T_units>  (1) 
K

>  <yaml_path>  (1) 
/home/calvin/Dropbox/PersonalFolders/Calvin/ATLAS_Converged/NonRMG/rxn_3178/output/Species/rxn_3178_r2_c1cnon1/rxn_3178_r2_c1cnon1.yml

>  <frequencies_cm1>  (1) 
[662.32760109932, 663.44691970648, 867.1766401802399, 919.6816099369598, 929.4464630619999, 948.98990328272, 972.56426388628, 1053.04533183668, 1065.3097676181999, 1200.47263967176, 1355.2338878285998, 1470.0086804670798, 1600.70114507732, 3245.1243856870797, 3258.4669381638396]

>  <ZPE_kJmol>  (1) 
120.89461909639334

>  <E_elec_kJmol>  (1) 
-688035.3498785436

>  <E0_minus_Eelec_plus_ZPE_kJmol>  (1) 
0.0

>  <rxn>  (1) 
rxn_3178

>  <species_type>  (1) 
r1

>  <species_folder>  (1) 
rxn_3178_r2_c1cnon1

>  <frequencies_cm1_list>  (1) 
[662.32760109932, 663.44691970648, 867.1766401802399, 919.6816099369598, 929.4464630619999, 948.98990328272, 972.56426388628, 1053.04533183668, 1065.3097676181999, 1200.47263967176, 1355.2338878285998, 1470.0086804670798, 1600.70114507732, 3245.1243856870797, 3258.4669381638396]

>  <E0_kJmol>  (1) 
-687914

>  <H298_kJmol>  (1) 
-687903

$$$$

     RDKit          3D

  7  7  0  0  0  0  0  0  0  0999 V2000
    1.2630    1.5343    0.2970 N   0  0  0  0  0  0  0  0  0  1  0  0
    0.4609    0.5948    0.0959 C   0  0  0  0  0  0  0  0  0  2  0  0
    0.5796   -0.6299    0.6670 O   0  0  0  0  0  0  0  0  0  3  0  0
   -0.4766   -1.3887    0.2088 N   0  0  0  0  0  0  0  0  0  4  0  0
   -1.1700   -0.7327   -0.5503 N   0  0  0  0  0  0  0  0  0  5  0  0
   -0.6493    0.5417   -0.6823 O   0  0  0  0  0  0  0  0  0  6  0  0
    0.9789    2.3869   -0.2264 H   0  0  0  0  0  0  0  0  0  7  0  0
  1  2  1  0
  1  7  1  0
  2  3  1  0
  2  6  1  0
  3  4  1  0
  4  5  1  0
  5  6  1  0
M  END
>  <rmg_smiles>  (2) 
[NH][C]1O[N][N]O1

>  <rmg_adjacency_list>  (2) 
1 O u0 p2 c0 {3,S} {6,S}
2 O u0 p2 c0 {4,S} {6,S}
3 N u0 p1 c0 {1,S} {4,S}
4 N u0 p1 c0 {2,S} {3,S}
5 N u0 p1 c0 {6,S} {7,S}
6 C u0 p0 c0 {1,S} {2,S} {5,S}
7 H u0 p0 c0 {5,S}


>  <multiplicity>  (2) 
1

>  <reaction>  (2) 
rxn_3178

>  <type>  (2) 
r2h

>  <role_mapnums>  (2) 
{"r2h_a": 1, "r2h_h": 7}

>  <role_mapidx>  (2) 
{"r2h_a": 0, "r2h_h": 6}

>  <ordered_mapped_smiles>  (2) 
[NH:1]([CH:2]1[O:3][NH:4][NH:5][O:6]1)[H:7]

>  <mol_properties>  (2) 
{"0": {"label": "acceptor", "atom_type": "N3s"}, "6": {"label": "a_hydrogen", "atom_type": "H0"}}

>  <level_of_theory>  (2) 
wb97xd/def2tzvp

>  <lot_method>  (2) 
wb97xd

>  <lot_basis>  (2) 
def2tzvp

>  <spin_multiplicity>  (2) 
1.0

>  <optical_isomers>  (2) 
1.0

>  <modes>  (2) 
IdealGasTranslation(mass=(87.0069, 'amu')),         NonlinearRotor(             inertia = ([48.8575, 120.721, 169.578

>  <frequency_value>  (2) 
unknown

>  <frequency_units>  (2) 
unknown

>  <frequency_list>  (2) 
unknown

>  <arkane_path>  (2) 
/home/calvin/Dropbox/PersonalFolders/Calvin/ATLAS_Converged/NonRMG/rxn_3178/output/Species/rxn_3178_p1_N=c1onno1/arkane/output.py

>  <path_exists>  (2) 
True

>  <E0_value>  (2) 
-927513.3956974436

>  <E0_units>  (2) 
kJ/mol

>  <thermo_class>  (2) 
NASA

>  <Cp0_value>  (2) 
33.257888

>  <Cp0_units>  (2) 
J/(mol*K)

>  <CpInf_value>  (2) 
157.97496800000002

>  <CpInf_units>  (2) 
J/(mol*K)

>  <Tmin_value>  (2) 
10.0

>  <Tmin_units>  (2) 
K

>  <Tmax_value>  (2) 
3000.0

>  <Tmax_units>  (2) 
K

>  <polynomials>  (2) 
[{"name": "polynomial1", "class": "NASAPolynomial", "Tmin_value": 10.0, "Tmin_units": "K", "Tmax_value": 594.5510705426203, "Tmax_units": "K", "coeffs": [4.064128165333628, -0.006464132682369532, 0.00012609118943386684, -2.2452471871589397e-07, 1.2482881080850414e-10, -111554092.36102824, 9.73736041625877]}, {"name": "polynomial2", "class": "NASAPolynomial", "Tmin_value": 594.5510705426203, "Tmin_units": "K", "Tmax_value": 3000.0, "Tmax_units": "K", "coeffs": [2.6619435988700717, 0.02700063330274151, -1.8966063744434276e-05, 6.109629991067157e-09, -7.351884988814937e-13, -111554350.36753283, 12.201082878024012]}]

>  <H298_value>  (2) 
-221677.73393283132

>  <H298_units>  (2) 
kcal/mol

>  <S298_value>  (2) 
69.21240690289005

>  <S298_units>  (2) 
cal/(mol*K)

>  <Cp_T_value_list>  (2) 
[16.736335365541446, 20.824137553247738, 24.027452944596273, 26.348252322457366, 29.711055843773885, 31.936305555783512, 34.552273976473494, 35.596788664173474, 36.33939231381346]

>  <Cp_T_units>  (2) 
cal/(mol*K)

>  <T_list>  (2) 
[300.0, 400.0, 500.0, 600.0, 800.0, 1000.0, 1500.0, 2000.0, 2400.0]

>  <T_units>  (2) 
K

>  <yaml_path>  (2) 
/home/calvin/Dropbox/PersonalFolders/Calvin/ATLAS_Converged/NonRMG/rxn_3178/output/Species/rxn_3178_p1_N=c1onno1/rxn_3178_p1_N=c1onno1.yml

>  <frequencies_cm1>  (2) 
[208.89369343439998, 445.44073675243993, 644.52150816456, 714.2214091625599, 757.75122910604, 783.81143839544, 819.0802749989599, 941.40875148944, 996.4545058145599, 1049.54316932348, 1062.20589025356, 1273.50302854996, 1598.9500638207198, 1829.7357064552798, 3558.0254387782]

>  <ZPE_kJmol>  (2) 
99.78979924741076

>  <E_elec_kJmol>  (2) 
-927613.1854966908

>  <E0_minus_Eelec_plus_ZPE_kJmol>  (2) 
0.0

>  <rxn>  (2) 
rxn_3178

>  <species_type>  (2) 
p0

>  <species_folder>  (2) 
rxn_3178_p1_N=c1onno1

>  <frequencies_cm1_list>  (2) 
[208.89369343439998, 445.44073675243993, 644.52150816456, 714.2214091625599, 757.75122910604, 783.81143839544, 819.0802749989599, 941.40875148944, 996.4545058145599, 1049.54316932348, 1062.20589025356, 1273.50302854996, 1598.9500638207198, 1829.7357064552798, 3558.0254387782]

>  <E0_kJmol>  (2) 
-927513

>  <H298_kJmol>  (2) 
-927500

$$$$

     RDKit          3D

 13 13  0  0  0  0  0  0  0  0999 V2000
    1.0626   -0.5018    1.0563 N   0  0  0  0  0  0  0  0  0  1  0  0
    0.2605   -1.4413    0.8552 C   0  0  0  0  0  0  0  0  0  2  0  0
    0.3792   -2.6660    1.4263 O   0  0  0  0  0  0  0  0  0  3  0  0
   -0.6770   -3.4248    0.9681 N   0  0  0  0  0  0  0  0  0  4  0  0
   -1.3704   -2.7688    0.2090 N   0  0  0  0  0  0  0  0  0  5  0  0
   -0.8497   -1.4944    0.0770 O   0  0  0  0  0  0  0  0  0  6  0  0
    0.1774    1.4663   -0.3402 C   0  0  0  0  0  0  0  0  0  7  0  0
    0.7860    2.1920   -1.3949 C   0  0  0  0  0  0  0  0  0  8  0  0
   -0.0807    3.0596   -1.8138 N   0  0  0  0  0  2  0  0  0  9  0  0
   -1.1897    2.8876   -1.0592 O   0  0  0  0  0  0  0  0  0 10  0  0
   -1.0152    1.8895   -0.1461 N   0  0  0  0  0  0  0  0  0 11  0  0
    0.7490    0.4395    0.4785 H   0  0  0  0  0  0  0  0  0 12  0  0
    1.7681    2.1128   -1.8275 H   0  0  0  0  0  0  0  0  0 13  0  0
  1  2  1  0
  1 12  1  0
  2  3  1  0
  2  6  1  0
  3  4  1  0
  4  5  1  0
  5  6  1  0
  7  8  1  0
  7 11  1  0
  8 13  1  0
  8  9  1  0
  9 10  1  0
 10 11  1  0
M  RAD  1   9   2
M  END
>  <rmg_smiles>  (3) 
[C]1[CH][N]O[N]1.[NH][C]1O[N][N]O1

>  <rmg_adjacency_list>  (3) 
multiplicity 2
1  O u0 p2 c0 {5,S} {9,S}
2  O u0 p2 c0 {6,S} {9,S}
3  O u0 p2 c0 {4,S} {7,S}
4  N u1 p1 c0 {3,S} {10,S}
5  N u0 p1 c0 {1,S} {6,S}
6  N u0 p1 c0 {2,S} {5,S}
7  N u0 p1 c0 {3,S} {11,S}
8  N u0 p1 c0 {9,S} {13,S}
9  C u0 p0 c0 {1,S} {2,S} {8,S}
10 C u0 p0 c0 {4,S} {11,S} {12,S}
11 C u0 p1 c0 {7,S} {10,S}
12 H u0 p0 c0 {10,S}
13 H u0 p0 c0 {8,S}


>  <multiplicity>  (3) 
2

>  <reaction>  (3) 
rxn_3178

>  <type>  (3) 
ts

>  <role_mapnums>  (3) 
{"*2": 12, "*1": 7, "*3": 1, "*0": 2, "*4": 11}

>  <role_mapidx>  (3) 
{"*2": 11, "*1": 6, "*3": 0, "*0": 1, "*4": 10}

>  <ordered_mapped_smiles>  (3) 
[NH:1]([CH:2]1[O:3][NH:4][NH:5][O:6]1)[H:12].[CH2:7]1[CH:8]([H:13])[N:9][O:10][NH:11]1

>  <mol_properties>  (3) 
{"0": {"label": "*3", "atom_type": "N3s"}, "1": {"label": "*0", "atom_type": "Cs"}, "6": {"label": "*1", "atom_type": "C2s"}, "10": {"label": "*4", "atom_type": "N3s"}, "11": {"label": "*2", "atom_type": "H0"}}

>  <level_of_theory>  (3) 
wb97xd/def2tzvp

>  <lot_method>  (3) 
wb97xd

>  <lot_basis>  (3) 
def2tzvp

>  <spin_multiplicity>  (3) 
2.0

>  <optical_isomers>  (3) 
2.0

>  <modes>  (3) 
IdealGasTranslation(mass=(156.016, 'amu')),         NonlinearRotor(             inertia = ([142.236, 1005.39, 1084.97

>  <frequency_value>  (3) 
-1367.83

>  <frequency_units>  (3) 
cm^-1

>  <frequency_list>  (3) 
unknown

>  <arkane_path>  (3) 
/home/calvin/Dropbox/PersonalFolders/Calvin/ATLAS_Converged/NonRMG/rxn_3178/output/rxns/TS0/arkane/output.py

>  <path_exists>  (3) 
True

>  <E0_value>  (3) 
-1613610.0

>  <E0_units>  (3) 
kJ/mol

>  <thermo_class>  (3) 
unknown

>  <Cp0_value>  (3) 
unknown

>  <Cp0_units>  (3) 
unknown

>  <CpInf_value>  (3) 
unknown

>  <CpInf_units>  (3) 
unknown

>  <Tmin_value>  (3) 
unknown

>  <Tmin_units>  (3) 
unknown

>  <Tmax_value>  (3) 
unknown

>  <Tmax_units>  (3) 
unknown

>  <polynomials>  (3) 
unknown

>  <H298_value>  (3) 
unknown

>  <H298_units>  (3) 
unknown

>  <S298_value>  (3) 
unknown

>  <S298_units>  (3) 
unknown

>  <Cp_T_value_list>  (3) 
unknown

>  <Cp_T_units>  (3) 
unknown

>  <T_list>  (3) 
unknown

>  <T_units>  (3) 
unknown

>  <yaml_path>  (3) 
unknown

>  <frequencies_cm1>  (3) 
unknown

>  <ZPE_kJmol>  (3) 
unknown

>  <E_elec_kJmol>  (3) 
unknown

>  <E0_minus_Eelec_plus_ZPE_kJmol>  (3) 
unknown

>  <rxn>  (3) 
unknown

>  <species_type>  (3) 
unknown

>  <species_folder>  (3) 
unknown

>  <frequencies_cm1_list>  (3) 
[]

>  <ts_imag_freq_cm1>  (3) 
-1384.439

>  <ts_freq_out_path>  (3) 
/home/calvin/Dropbox/PersonalFolders/Calvin/ATLAS_Converged/NonRMG/rxn_3178/output/rxns/TS0/geometry/freq.out

>  <E0_kJmol>  (3) 
-1.61361e+06

>  <H298_kJmol>  (3) 
unknown

$$$$

     RDKit          3D

  6  6  0  0  0  0  0  0  0  0999 V2000
    0.0040   -1.0366    0.5531 N   0  0  0  0  0  2  0  0  0  1  0  0
    0.7728   -0.0100    0.3662 C   0  0  0  0  0  0  0  0  0  2  0  0
   -0.0705    1.0499   -0.0506 C   0  0  0  0  0  0  0  0  0  3  0  0
   -1.2838    0.6855   -0.1130 N   0  0  0  0  0  0  0  0  0  4  0  0
   -1.2584   -0.6375    0.2669 O   0  0  0  0  0  0  0  0  0  5  0  0
    1.8359   -0.0512    0.5234 H   0  0  0  0  0  0  0  0  0  6  0  0
  1  2  1  0
  1  5  1  0
  2  6  1  0
  2  3  1  0
  3  4  1  0
  4  5  1  0
M  RAD  1   1   2
M  END
>  <rmg_smiles>  (4) 
[C]1[CH][N]O[N]1

>  <rmg_adjacency_list>  (4) 
multiplicity 2
1 O u0 p2 c0 {2,S} {3,S}
2 N u1 p1 c0 {1,S} {4,S}
3 N u0 p1 c0 {1,S} {5,S}
4 C u0 p0 c0 {2,S} {5,S} {6,S}
5 C u0 p1 c0 {3,S} {4,S}
6 H u0 p0 c0 {4,S}


>  <multiplicity>  (4) 
2

>  <reaction>  (4) 
rxn_3178

>  <type>  (4) 
r1

>  <role_mapnums>  (4) 
{}

>  <role_mapidx>  (4) 
{}

>  <ordered_mapped_smiles>  (4) 
[N:1]1[CH:2]([H:6])[CH2:3][NH:4][O:5]1

>  <level_of_theory>  (4) 
wb97xd/def2tzvp

>  <lot_method>  (4) 
wb97xd

>  <lot_basis>  (4) 
def2tzvp

>  <spin_multiplicity>  (4) 
2.0

>  <optical_isomers>  (4) 
1.0

>  <modes>  (4) 
IdealGasTranslation(mass=(69.0089, 'amu')),         NonlinearRotor(             inertia = ([42.6473, 50.8238, 93.471

>  <frequency_value>  (4) 
unknown

>  <frequency_units>  (4) 
unknown

>  <frequency_list>  (4) 
unknown

>  <arkane_path>  (4) 
/home/calvin/Dropbox/PersonalFolders/Calvin/ATLAS_Converged/NonRMG/rxn_3178/output/Species/rxn_3178_p2_N1=Csbr-C-sbr=NO1/arkane/output.py

>  <path_exists>  (4) 
True

>  <E0_value>  (4) 
-686101.521625273

>  <E0_units>  (4) 
kJ/mol

>  <thermo_class>  (4) 
NASA

>  <Cp0_value>  (4) 
33.257888

>  <Cp0_units>  (4) 
J/(mol*K)

>  <CpInf_value>  (4) 
133.031552

>  <CpInf_units>  (4) 
J/(mol*K)

>  <Tmin_value>  (4) 
10.0

>  <Tmin_units>  (4) 
K

>  <Tmax_value>  (4) 
3000.0

>  <Tmax_units>  (4) 
K

>  <polynomials>  (4) 
[{"name": "polynomial1", "class": "NASAPolynomial", "Tmin_value": 10.0, "Tmin_units": "K", "Tmax_value": 663.7345269286883, "Tmax_units": "K", "coeffs": [4.152343938525593, -0.01196527241127511, 0.00010929325172529722, -1.6669691338968217e-07, 8.139477074785958e-11, -82518953.83274513, 9.243258627974766]}, {"name": "polynomial2", "class": "NASAPolynomial", "Tmin_value": 663.7345269286883, "Tmin_units": "K", "Tmax_value": 3000.0, "Tmax_units": "K", "coeffs": [1.6808213672904198, 0.023178429295777455, -1.589104101763286e-05, 5.004203310397837e-09, -5.901617716754618e-13, -82519071.77530603, 16.793916458228715]}]

>  <H298_value>  (4) 
-163979.45951865704

>  <H298_units>  (4) 
kcal/mol

>  <S298_value>  (4) 
65.33288040435882

>  <S298_units>  (4) 
cal/(mol*K)

>  <Cp_T_value_list>  (4) 
[13.031376595909357, 16.430737885894317, 19.361511244142285, 21.583010280588496, 24.58913759181845, 26.593296550584004, 29.003507856861873, 29.936379691865607, 30.552526496833284]

>  <Cp_T_units>  (4) 
cal/(mol*K)

>  <T_list>  (4) 
[300.0, 400.0, 500.0, 600.0, 800.0, 1000.0, 1500.0, 2000.0, 2400.0]

>  <T_units>  (4) 
K

>  <yaml_path>  (4) 
/home/calvin/Dropbox/PersonalFolders/Calvin/ATLAS_Converged/NonRMG/rxn_3178/output/Species/rxn_3178_p2_N1=Csbr-C-sbr=NO1/rxn_3178_p2_N1=Csbr-C-sbr=NO1.yml

>  <frequencies_cm1>  (4) 
[606.70502000732, 650.9215384827999, 816.74549999016, 876.34406558244, 912.1828619675198, 931.14260843604, 1019.9739305355598, 1098.16142538908, 1298.5949929092399, 1454.2832840842798, 1567.86322127708, 3268.28672717144]

>  <ZPE_kJmol>  (4) 
86.73649355436496

>  <E_elec_kJmol>  (4) 
-686188.2581188274

>  <E0_minus_Eelec_plus_ZPE_kJmol>  (4) 
0.0

>  <rxn>  (4) 
rxn_3178

>  <species_type>  (4) 
p1

>  <species_folder>  (4) 
rxn_3178_p2_N1=Csbr-C-sbr=NO1

>  <frequencies_cm1_list>  (4) 
[606.70502000732, 650.9215384827999, 816.74549999016, 876.34406558244, 912.1828619675198, 931.14260843604, 1019.9739305355598, 1098.16142538908, 1298.5949929092399, 1454.2832840842798, 1567.86322127708, 3268.28672717144]

>  <E0_kJmol>  (4) 
-686102

>  <H298_kJmol>  (4) 
-686090

$$$$

     RDKit          3D

  6  6  0  0  0  0  0  0  0  0999 V2000
    1.9594    0.0134   -0.3734 N   0  0  0  0  0  2  0  0  0  1  0  0
    0.7437    0.0051   -0.0788 C   0  0  0  0  0  0  0  0  0  2  0  0
   -0.0745    1.0868    0.0233 O   0  0  0  0  0  0  0  0  0  3  0  0
   -1.3223    0.5972    0.3682 N   0  0  0  0  0  0  0  0  0  4  0  0
   -1.2899   -0.6150    0.4676 N   0  0  0  0  0  0  0  0  0  5  0  0
   -0.0165   -1.0874    0.2015 O   0  0  0  0  0  0  0  0  0  6  0  0
  1  2  1  0
  2  3  1  0
  2  6  1  0
  3  4  1  0
  4  5  1  0
  5  6  1  0
M  RAD  1   1   2
M  END
>  <rmg_smiles>  (5) 
[N][C]1O[N][N]O1

>  <rmg_adjacency_list>  (5) 
multiplicity 2
1 O u0 p2 c0 {3,S} {6,S}
2 O u0 p2 c0 {4,S} {6,S}
3 N u0 p1 c0 {1,S} {4,S}
4 N u0 p1 c0 {2,S} {3,S}
5 N u1 p2 c0 {6,S}
6 C u0 p0 c0 {1,S} {2,S} {5,S}


>  <multiplicity>  (5) 
2

>  <reaction>  (5) 
rxn_3178

>  <type>  (5) 
r2

>  <role_mapnums>  (5) 
{}

>  <role_mapidx>  (5) 
{}

>  <ordered_mapped_smiles>  (5) 
[NH:1][CH:2]1[O:3][NH:4][NH:5][O:6]1

>  <level_of_theory>  (5) 
wb97xd/def2tzvp

>  <lot_method>  (5) 
wb97xd

>  <lot_basis>  (5) 
def2tzvp

>  <spin_multiplicity>  (5) 
2.0

>  <optical_isomers>  (5) 
1.0

>  <modes>  (5) 
IdealGasTranslation(mass=(85.999, 'amu')),         NonlinearRotor(             inertia = ([48.4503, 114.569, 163.019

>  <frequency_value>  (5) 
unknown

>  <frequency_units>  (5) 
unknown

>  <frequency_list>  (5) 
unknown

>  <arkane_path>  (5) 
/home/calvin/Dropbox/PersonalFolders/Calvin/ATLAS_Converged/NonRMG/rxn_3178/output/Species/rxn_3178_r1_sbr-N-sbr=c1onno1/arkane/output.py

>  <path_exists>  (5) 
True

>  <E0_value>  (5) 
-925766.1233507326

>  <E0_units>  (5) 
kJ/mol

>  <thermo_class>  (5) 
NASA

>  <Cp0_value>  (5) 
33.257888

>  <Cp0_units>  (5) 
J/(mol*K)

>  <CpInf_value>  (5) 
133.031552

>  <CpInf_units>  (5) 
J/(mol*K)

>  <Tmin_value>  (5) 
10.0

>  <Tmin_units>  (5) 
K

>  <Tmax_value>  (5) 
3000.0

>  <Tmax_units>  (5) 
K

>  <polynomials>  (5) 
[{"name": "polynomial1", "class": "NASAPolynomial", "Tmin_value": 10.0, "Tmin_units": "K", "Tmax_value": 616.0864984642515, "Tmax_units": "K", "coeffs": [3.94812055354869, 0.002870632430470056, 6.601813711413239e-05, -1.1874693803665765e-07, 6.345849341330536e-11, -111343943.32258263, 9.377120967783604]}, {"name": "polynomial2", "class": "NASAPolynomial", "Tmin_value": 616.0864984642515, "Tmin_units": "K", "Tmax_value": 3000.0, "Tmax_units": "K", "coeffs": [2.4544566455499175, 0.02517036301302165, -1.8957852591200607e-05, 6.406820502487897e-09, -7.999640326918053e-13, -111343998.43927236, 13.91872622116066]}]

>  <H298_value>  (5) 
-221260.06538606877

>  <H298_units>  (5) 
kcal/mol

>  <S298_value>  (5) 
69.02430482099071

>  <S298_units>  (5) 
cal/(mol*K)

>  <Cp_T_value_list>  (5) 
[16.01447807468723, 19.24412536395936, 21.88065311931888, 23.870148628394773, 26.6491311769416, 28.365034926557463, 30.06252774055981, 30.64056177383133, 31.185424153668]

>  <Cp_T_units>  (5) 
cal/(mol*K)

>  <T_list>  (5) 
[300.0, 400.0, 500.0, 600.0, 800.0, 1000.0, 1500.0, 2000.0, 2400.0]

>  <T_units>  (5) 
K

>  <yaml_path>  (5) 
/home/calvin/Dropbox/PersonalFolders/Calvin/ATLAS_Converged/NonRMG/rxn_3178/output/Species/rxn_3178_r1_sbr-N-sbr=c1onno1/rxn_3178_r1_sbr-N-sbr=c1onno1.yml

>  <frequencies_cm1>  (5) 
[203.66105062056, 421.06293886643994, 625.6235645639199, 691.3131461350399, 746.0704870767199, 784.21659052932, 934.89884940608, 1008.3206564475199, 1041.0761764239198, 1163.2398452667198, 1617.8480074213599, 1768.29678879724]

>  <ZPE_kJmol>  (5) 
65.82829353267302

>  <E_elec_kJmol>  (5) 
-925831.9516442652

>  <E0_minus_Eelec_plus_ZPE_kJmol>  (5) 
0.0

>  <rxn>  (5) 
rxn_3178

>  <species_type>  (5) 
r0

>  <species_folder>  (5) 
rxn_3178_r1_sbr-N-sbr=c1onno1

>  <frequencies_cm1_list>  (5) 
[203.66105062056, 421.06293886643994, 625.6235645639199, 691.3131461350399, 746.0704870767199, 784.21659052932, 934.89884940608, 1008.3206564475199, 1041.0761764239198, 1163.2398452667198, 1617.8480074213599, 1768.29678879724]

>  <E0_kJmol>  (5) 
-925766

>  <H298_kJmol>  (5) 
-925752

$$$$
