
     RDKit          3D

 25 26  0  0  0  0  0  0  0  0999 V2000
    0.6483    0.4731    0.0104 C   0  0  0  0  0  0  0  0  0  1  0  0
   -0.3442   -0.6443   -0.3287 C   0  0  0  0  0  0  0  0  0  2  0  0
   -0.0775    1.7201    0.5155 C   0  0  0  0  0  0  0  0  0  3  0  0
    1.5218    0.5865   -1.2190 C   0  0  0  0  0  0  0  0  0  4  0  0
    0.4901   -1.6023   -1.1710 C   0  0  0  0  0  0  0  0  0  5  0  0
   -1.0095   -1.1734    0.9402 C   0  0  0  0  0  0  0  0  0  6  0  0
   -1.1995   -0.0421    1.9740 C   0  0  0  0  0  0  0  0  0  7  0  0
   -1.3440    1.3263    1.3049 C   0  0  0  0  0  0  0  0  0  8  0  0
    1.2967   -0.6542   -2.0721 C   0  0  0  0  0  0  0  0  0  9  0  0
    1.2718    0.0847    0.8301 H   0  0  0  0  0  0  0  0  0 10  0  0
   -1.1141   -0.2109   -0.9805 H   0  0  0  0  0  0  0  0  0 11  0  0
   -2.0696   -0.2473    2.6002 H   0  0  0  0  0  0  0  0  0 12  0  0
   -0.3390   -0.0135    2.6487 H   0  0  0  0  0  0  0  0  0 13  0  0
   -2.2029    1.2963    0.6281 H   0  0  0  0  0  0  0  0  0 14  0  0
   -1.5725    2.0886    2.0520 H   0  0  0  0  0  0  0  0  0 15  0  0
    0.5920    2.3113    1.1451 H   0  0  0  0  0  0  0  0  0 16  0  0
   -0.3560    2.3566   -0.3291 H   0  0  0  0  0  0  0  0  0 17  0  0
    2.5404    0.5072   -0.8440 H   0  0  0  0  0  0  0  0  0 18  0  0
    1.5411    1.5443   -1.7353 H   0  0  0  0  0  0  0  0  0 19  0  0
    0.7158   -0.3965   -2.9635 H   0  0  0  0  0  0  0  0  0 20  0  0
    2.2301   -1.1000   -2.4257 H   0  0  0  0  0  0  0  0  0 21  0  0
   -0.1055   -2.3211   -1.7355 H   0  0  0  0  0  0  0  0  0 22  0  0
    1.1658   -2.1626   -0.5178 H   0  0  0  0  0  0  0  0  0 23  0  0
   -0.3921   -1.9649    1.3749 H   0  0  0  0  0  0  0  0  0 24  0  0
   -1.9729   -1.6269    0.6951 H   0  0  0  0  0  0  0  0  0 25  0  0
  1  3  1  0
  1  4  1  0
  1 10  1  0
  1  2  1  0
  2 11  1  0
  2  6  1  0
  2  5  1  0
  3 17  1  0
  3  8  1  0
  3 16  1  0
  4  9  1  0
  4 18  1  0
  4 19  1  0
  5  9  1  0
  5 23  1  0
  5 22  1  0
  6  7  1  0
  6 24  1  0
  6 25  1  0
  7 12  1  0
  7 13  1  0
  7  8  1  0
  8 15  1  0
  8 14  1  0
  9 21  1  0
  9 20  1  0
M  END
>  <rmg_smiles>  (1) 
C1CCC2CCCC2C1

>  <rmg_adjacency_list>  (1) 
1  C u0 p0 c0 {2,S} {3,S} {4,S} {10,S}
2  C u0 p0 c0 {1,S} {5,S} {6,S} {11,S}
3  C u0 p0 c0 {1,S} {8,S} {16,S} {17,S}
4  C u0 p0 c0 {1,S} {9,S} {18,S} {19,S}
5  C u0 p0 c0 {2,S} {9,S} {22,S} {23,S}
6  C u0 p0 c0 {2,S} {7,S} {24,S} {25,S}
7  C u0 p0 c0 {6,S} {8,S} {12,S} {13,S}
8  C u0 p0 c0 {3,S} {7,S} {14,S} {15,S}
9  C u0 p0 c0 {4,S} {5,S} {20,S} {21,S}
10 H u0 p0 c0 {1,S}
11 H u0 p0 c0 {2,S}
12 H u0 p0 c0 {7,S}
13 H u0 p0 c0 {7,S}
14 H u0 p0 c0 {8,S}
15 H u0 p0 c0 {8,S}
16 H u0 p0 c0 {3,S}
17 H u0 p0 c0 {3,S}
18 H u0 p0 c0 {4,S}
19 H u0 p0 c0 {4,S}
20 H u0 p0 c0 {9,S}
21 H u0 p0 c0 {9,S}
22 H u0 p0 c0 {5,S}
23 H u0 p0 c0 {5,S}
24 H u0 p0 c0 {6,S}
25 H u0 p0 c0 {6,S}


>  <multiplicity>  (1) 
1

>  <reaction>  (1) 
rxn_581

>  <type>  (1) 
r1h

>  <role_mapnums>  (1) 
{"r1h_a": 4, "r1h_h": 18}

>  <role_mapidx>  (1) 
{"r1h_a": 3, "r1h_h": 17}

>  <ordered_mapped_smiles>  (1) 
[C:1]12([H:10])[C:2]([H:11])([C:5]([H:22])([H:23])[C:9]([H:20])([H:21])[C:4]1([H:18])[H:19])[C:6]([H:24])([H:25])[C:7]([H:12])([H:13])[C:8]([H:14])([H:15])[C:3]2([H:16])[H:17]

>  <mol_properties>  (1) 
{"3": {"label": "donator", "atom_type": "Cs"}, "17": {"label": "d_hydrogen", "atom_type": "H0"}}

>  <level_of_theory>  (1) 
wb97xd/def2tzvp

>  <lot_method>  (1) 
wb97xd

>  <lot_basis>  (1) 
def2tzvp

>  <spin_multiplicity>  (1) 
1.0

>  <optical_isomers>  (1) 
2.0

>  <modes>  (1) 
IdealGasTranslation(mass=(124.125, 'amu')),         NonlinearRotor(             inertia = ([170.024, 375.242, 505.424

>  <frequency_value>  (1) 
unknown

>  <frequency_units>  (1) 
unknown

>  <frequency_list>  (1) 
unknown

>  <arkane_path>  (1) 
/home/calvin/Dropbox/PersonalFolders/Calvin/HAb_Converged/rxn_581/output/Species/rxn_581_C1CCC2CCCC2C1/arkane/output.py

>  <path_exists>  (1) 
True

>  <E0_value>  (1) 
-925233.0049241188

>  <E0_units>  (1) 
kJ/mol

>  <thermo_class>  (1) 
NASA

>  <Cp0_value>  (1) 
33.257888

>  <Cp0_units>  (1) 
J/(mol*K)

>  <CpInf_value>  (1) 
606.956456

>  <CpInf_units>  (1) 
J/(mol*K)

>  <Tmin_value>  (1) 
10.0

>  <Tmin_units>  (1) 
K

>  <Tmax_value>  (1) 
3000.0

>  <Tmax_units>  (1) 
K

>  <polynomials>  (1) 
[{"name": "polynomial1", "class": "NASAPolynomial", "Tmin_value": 10.0, "Tmin_units": "K", "Tmax_value": 492.86414085374884, "Tmax_units": "K", "coeffs": [4.007994789865864, -0.0014434969438387518, 0.0002774235318770471, -4.47143959124011e-07, 2.345687014006794e-10, -111279824.80461533, 12.742603075803766]}, {"name": "polynomial2", "class": "NASAPolynomial", "Tmin_value": 492.86414085374884, "Tmin_units": "K", "Tmax_value": 3000.0, "Tmax_units": "K", "coeffs": [-9.95853370242537, 0.11191389639895702, -6.759505783925652e-05, 1.9571966588871765e-08, -2.183492026273649e-12, -111278448.17509678, 70.24048730977755]}]

>  <H298_value>  (1) 
-221130.41480672767

>  <H298_units>  (1) 
kcal/mol

>  <S298_value>  (1) 
87.40258332007863

>  <S298_units>  (1) 
cal/(mol*K)

>  <Cp_T_value_list>  (1) 
[36.50534740058796, 50.089738669944325, 62.417515537946755, 73.12949241055418, 90.29515590280347, 102.83551087971135, 120.87161605712708, 129.42454969138163, 133.951878152645]

>  <Cp_T_units>  (1) 
cal/(mol*K)

>  <T_list>  (1) 
[300.0, 400.0, 500.0, 600.0, 800.0, 1000.0, 1500.0, 2000.0, 2400.0]

>  <T_units>  (1) 
K

>  <yaml_path>  (1) 
/home/calvin/Dropbox/PersonalFolders/Calvin/HAb_Converged/rxn_581/output/Species/rxn_581_C1CCC2CCCC2C1/rxn_581_C1CCC2CCCC2C1.yml

>  <frequencies_cm1>  (1) 
[79.74630052116, 161.44969185852, 192.46099756363998, 319.95344701476, 325.08995203411996, 337.32691987436, 425.16252910247994, 470.50523317043996, 497.06673238819997, 579.3538174777599, 623.59780389452, 769.3495673115199, 782.1839628746, 837.42199278868, 848.74565158136, 873.0204446875598, 907.5545138618398, 921.7142375916799, 922.5451428153999, 945.43967187228, 987.1978096031999, 1015.3867843418, 1044.03584709684, 1066.28487953364, 1072.4857672776, 1096.98030391404, 1116.2696656779199, 1122.75209982, 1142.3985448205199, 1202.0657802659998, 1207.82031396416, 1217.5508321625998, 1256.61711164808, 1262.63945777372, 1284.5314069738797, 1286.2687542598399, 1313.97704002604, 1316.9847795961998, 1320.6311488011202, 1339.9411115209598, 1339.9754464475598, 1365.2322184545199, 1368.74811493836, 1376.8580246012798, 1398.55083122716, 1401.5036349147601, 1472.50826312356, 1476.82072990452, 1478.06365424744, 1478.81215564732, 1486.92206531024, 1491.0628574582, 1506.3831017071197, 2950.4551786205598, 2962.34193020948, 2991.31374127456, 2991.7532283350397, 2996.8759993837602, 3001.07172741428, 3015.06664349644, 3015.65720423396, 3043.90798184044, 3044.3474689009204, 3044.821290888, 3053.3088847435192, 3057.07199269888, 3062.7784574998, 3072.117557535, 3090.8781614292393]

>  <ZPE_kJmol>  (1) 
613.2521071062491

>  <E_elec_kJmol>  (1) 
-925846.257031225

>  <E0_minus_Eelec_plus_ZPE_kJmol>  (1) 
0.0

>  <rxn>  (1) 
rxn_581

>  <species_type>  (1) 
r1

>  <species_folder>  (1) 
rxn_581_C1CCC2CCCC2C1

>  <frequencies_cm1_list>  (1) 
[79.74630052116, 161.44969185852, 192.46099756363998, 319.95344701476, 325.08995203411996, 337.32691987436, 425.16252910247994, 470.50523317043996, 497.06673238819997, 579.3538174777599, 623.59780389452, 769.3495673115199, 782.1839628746, 837.42199278868, 848.74565158136, 873.0204446875598, 907.5545138618398, 921.7142375916799, 922.5451428153999, 945.43967187228, 987.1978096031999, 1015.3867843418, 1044.03584709684, 1066.28487953364, 1072.4857672776, 1096.98030391404, 1116.2696656779199, 1122.75209982, 1142.3985448205199, 1202.0657802659998, 1207.82031396416, 1217.5508321625998, 1256.61711164808, 1262.63945777372, 1284.5314069738797, 1286.2687542598399, 1313.97704002604, 1316.9847795961998, 1320.6311488011202, 1339.9411115209598, 1339.9754464475598, 1365.2322184545199, 1368.74811493836, 1376.8580246012798, 1398.55083122716, 1401.5036349147601, 1472.50826312356, 1476.82072990452, 1478.06365424744, 1478.81215564732, 1486.92206531024, 1491.0628574582, 1506.3831017071197, 2950.4551786205598, 2962.34193020948, 2991.31374127456, 2991.7532283350397, 2996.8759993837602, 3001.07172741428, 3015.06664349644, 3015.65720423396, 3043.90798184044, 3044.3474689009204, 3044.821290888, 3053.3088847435192, 3057.07199269888, 3062.7784574998, 3072.117557535, 3090.8781614292393]

>  <E0_kJmol>  (1) 
-925233

>  <H298_kJmol>  (1) 
-925210

$$$$

     RDKit          3D

  9  8  0  0  0  0  0  0  0  0999 V2000
   -0.0401    0.1236    0.4333 C   0  0  0  0  0  0  0  0  0  1  0  0
    0.1094    1.0138   -0.7101 C   0  0  0  0  0  0  0  0  0  2  0  0
   -0.0454   -1.2117    0.3730 C   0  0  0  0  0  0  0  0  0  3  0  0
   -0.8853    1.2305   -1.0940 H   0  0  0  0  0  0  0  0  0  4  0  0
   -0.2093    0.5956    1.3977 H   0  0  0  0  0  0  0  0  0  5  0  0
    0.5872    0.5662   -1.5801 H   0  0  0  0  0  0  0  0  0  6  0  0
    0.5044    2.0016   -0.4854 H   0  0  0  0  0  0  0  0  0  7  0  0
   -0.2030   -1.8180    1.2554 H   0  0  0  0  0  0  0  0  0  8  0  0
    0.1181   -1.7338   -0.5638 H   0  0  0  0  0  0  0  0  0  9  0  0
  1  5  1  0
  1  3  1  0
  1  2  1  0
  2  7  1  0
  2  6  1  0
  2  4  1  0
  3  8  1  0
  3  9  1  0
M  END
>  <rmg_smiles>  (2) 
[CH2][CH]C

>  <rmg_adjacency_list>  (2) 
1 C u0 p0 c0 {2,S} {4,S} {5,S} {6,S}
2 C u0 p0 c0 {1,S} {3,S} {7,S}
3 C u0 p0 c0 {2,S} {8,S} {9,S}
4 H u0 p0 c0 {1,S}
5 H u0 p0 c0 {1,S}
6 H u0 p0 c0 {1,S}
7 H u0 p0 c0 {2,S}
8 H u0 p0 c0 {3,S}
9 H u0 p0 c0 {3,S}


>  <multiplicity>  (2) 
1

>  <reaction>  (2) 
rxn_581

>  <type>  (2) 
r2h

>  <role_mapnums>  (2) 
{"r2h_a": 2, "r2h_h": 4}

>  <role_mapidx>  (2) 
{"r2h_a": 1, "r2h_h": 3}

>  <ordered_mapped_smiles>  (2) 
[CH:1]([C:2]([H:4])([H:6])[H:7])([CH:3]([H:8])[H:9])[H:5]

>  <mol_properties>  (2) 
{"1": {"label": "acceptor", "atom_type": "Cs"}, "3": {"label": "a_hydrogen", "atom_type": "H0"}}

>  <level_of_theory>  (2) 
wb97xd/def2tzvp

>  <lot_method>  (2) 
wb97xd

>  <lot_basis>  (2) 
def2tzvp

>  <spin_multiplicity>  (2) 
1.0

>  <optical_isomers>  (2) 
1.0

>  <modes>  (2) 
IdealGasTranslation(mass=(42.047, 'amu')),         NonlinearRotor(             inertia = ([10.7194, 53.9495, 61.5633

>  <frequency_value>  (2) 
unknown

>  <frequency_units>  (2) 
unknown

>  <frequency_list>  (2) 
unknown

>  <arkane_path>  (2) 
/home/calvin/Dropbox/PersonalFolders/Calvin/HAb_Converged/rxn_581/output/Species/rxn_581_C=CC/arkane/output.py

>  <path_exists>  (2) 
True

>  <E0_value>  (2) 
-309367.8832800635

>  <E0_units>  (2) 
kJ/mol

>  <thermo_class>  (2) 
NASA

>  <Cp0_value>  (2) 
33.257888

>  <Cp0_units>  (2) 
J/(mol*K)

>  <CpInf_value>  (2) 
207.8618

>  <CpInf_units>  (2) 
J/(mol*K)

>  <Tmin_value>  (2) 
10.0

>  <Tmin_units>  (2) 
K

>  <Tmax_value>  (2) 
3000.0

>  <Tmax_units>  (2) 
K

>  <polynomials>  (2) 
[{"name": "polynomial1", "class": "NASAPolynomial", "Tmin_value": 10.0, "Tmin_units": "K", "Tmax_value": 531.9066404514887, "Tmax_units": "K", "coeffs": [4.0204367106395305, -0.0017312814973888466, 7.469369070858841e-05, -1.103989586823944e-07, 5.357411953540602e-11, -37208361.619619094, 6.984063163619424]}, {"name": "polynomial2", "class": "NASAPolynomial", "Tmin_value": 531.9066404514887, "Tmin_units": "K", "Tmax_value": 3000.0, "Tmax_units": "K", "coeffs": [-0.30746978474152303, 0.03081497539241948, -1.7087881859194207e-05, 4.635359552359225e-09, -4.926745989402899e-13, -37207901.209693715, 25.131571818199003]}]

>  <H298_value>  (2) 
-73937.54315081466

>  <H298_units>  (2) 
kcal/mol

>  <S298_value>  (2) 
63.235428095961645

>  <S298_units>  (2) 
cal/(mol*K)

>  <Cp_T_value_list>  (2) 
[15.255114438428619, 19.0471333221202, 22.6079143488244, 25.768633340780376, 30.96022164704354, 34.89993402421754, 40.97109580318192, 44.05842766532305, 45.61775865339882]

>  <Cp_T_units>  (2) 
cal/(mol*K)

>  <T_list>  (2) 
[300.0, 400.0, 500.0, 600.0, 800.0, 1000.0, 1500.0, 2000.0, 2400.0]

>  <T_units>  (2) 
K

>  <yaml_path>  (2) 
/home/calvin/Dropbox/PersonalFolders/Calvin/HAb_Converged/rxn_581/output/Species/rxn_581_C=CC/rxn_581_C=CC.yml

>  <frequencies_cm1>  (2) 
[200.92112347787997, 429.72220735495995, 590.1693193567598, 925.5460154002399, 944.49202789812, 949.7315376972799, 1024.05291981564, 1068.7501272635197, 1186.76613697304, 1322.2792252779197, 1396.37399688072, 1440.26090006084, 1466.0326959668, 1481.02332492036, 1720.5094379553598, 3007.2932161142003, 3065.80679802592, 3091.5648599612396, 3111.3280437122, 3123.2628641983597, 3201.2855514042]

>  <ZPE_kJmol>  (2) 
207.8343042708976

>  <E_elec_kJmol>  (2) 
-309575.71758433443

>  <E0_minus_Eelec_plus_ZPE_kJmol>  (2) 
0.0

>  <rxn>  (2) 
rxn_581

>  <species_type>  (2) 
p0

>  <species_folder>  (2) 
rxn_581_C=CC

>  <frequencies_cm1_list>  (2) 
[200.92112347787997, 429.72220735495995, 590.1693193567598, 925.5460154002399, 944.49202789812, 949.7315376972799, 1024.05291981564, 1068.7501272635197, 1186.76613697304, 1322.2792252779197, 1396.37399688072, 1440.26090006084, 1466.0326959668, 1481.02332492036, 1720.5094379553598, 3007.2932161142003, 3065.80679802592, 3091.5648599612396, 3111.3280437122, 3123.2628641983597, 3201.2855514042]

>  <E0_kJmol>  (2) 
-309368

>  <H298_kJmol>  (2) 
-309355

$$$$

     RDKit          3D

 33 33  0  0  0  0  0  0  0  0999 V2000
   -0.3285    0.6748   -0.1124 C   0  0  0  0  0  0  0  0  0  1  0  0
   -1.3209   -0.4427   -0.4514 C   0  0  0  0  0  0  0  0  0  2  0  0
   -1.0542    1.9217    0.3927 C   0  0  0  0  0  0  0  0  0  3  0  0
    0.5451    0.7881   -1.3417 C   0  0  0  0  0  3  0  0  0  4  0  0
   -0.4866   -1.4007   -1.2937 C   0  0  0  0  0  0  0  0  0  5  0  0
   -1.9862   -0.9718    0.8175 C   0  0  0  0  0  0  0  0  0  6  0  0
   -2.1762    0.1595    1.8513 C   0  0  0  0  0  0  0  0  0  7  0  0
   -2.3208    1.5279    1.1822 C   0  0  0  0  0  0  0  0  0  8  0  0
    0.3200   -0.4526   -2.1949 C   0  0  0  0  0  0  0  0  0  9  0  0
    2.8853   -0.4628    0.7395 C   0  0  0  0  0  0  0  0  0 10  0  0
    3.0348    0.4274   -0.4039 C   0  0  0  0  0  0  0  0  0 11  0  0
    2.8800   -1.7981    0.6791 C   0  0  0  0  0  0  0  0  0 12  0  0
    0.2950    0.2864    0.7073 H   0  0  0  0  0  0  0  0  0 13  0  0
   -2.0908   -0.0093   -1.1032 H   0  0  0  0  0  0  0  0  0 14  0  0
   -3.0463   -0.0457    2.4775 H   0  0  0  0  0  0  0  0  0 15  0  0
   -1.3157    0.1881    2.5259 H   0  0  0  0  0  0  0  0  0 16  0  0
   -3.1796    1.4980    0.5053 H   0  0  0  0  0  0  0  0  0 17  0  0
   -2.5492    2.2903    1.9292 H   0  0  0  0  0  0  0  0  0 18  0  0
   -0.3847    2.5130    1.0224 H   0  0  0  0  0  0  0  0  0 19  0  0
   -1.3327    2.5582   -0.4519 H   0  0  0  0  0  0  0  0  0 20  0  0
    1.8430    0.6870   -0.8639 H   0  0  0  0  0  0  0  0  0 21  0  0
    0.5643    1.7459   -1.8581 H   0  0  0  0  0  0  0  0  0 22  0  0
   -0.2609   -0.1949   -3.0863 H   0  0  0  0  0  0  0  0  0 23  0  0
    1.2533   -0.8984   -2.5484 H   0  0  0  0  0  0  0  0  0 24  0  0
   -1.0822   -2.1195   -1.8582 H   0  0  0  0  0  0  0  0  0 25  0  0
    0.1891   -1.9610   -0.6406 H   0  0  0  0  0  0  0  0  0 26  0  0
   -1.3689   -1.7632    1.2521 H   0  0  0  0  0  0  0  0  0 27  0  0
   -2.9497   -1.4253    0.5724 H   0  0  0  0  0  0  0  0  0 28  0  0
    2.7161    0.0092    1.7038 H   0  0  0  0  0  0  0  0  0 29  0  0
    3.5126   -0.0202   -1.2740 H   0  0  0  0  0  0  0  0  0 30  0  0
    3.4298    1.4152   -0.1793 H   0  0  0  0  0  0  0  0  0 31  0  0
    2.7224   -2.4044    1.5615 H   0  0  0  0  0  0  0  0  0 32  0  0
    3.0435   -2.3202   -0.2577 H   0  0  0  0  0  0  0  0  0 33  0  0
  1  3  1  0
  1  4  1  0
  1  2  1  0
  1 13  1  0
  2  6  1  0
  2  5  1  0
  2 14  1  0
  3 20  1  0
  3  8  1  0
  3 19  1  0
  4  9  1  0
  4 22  1  0
  5  9  1  0
  5 26  1  0
  5 25  1  0
  6  7  1  0
  6 27  1  0
  6 28  1  0
  7 15  1  0
  7  8  1  0
  7 16  1  0
  8 17  1  0
  8 18  1  0
  9 24  1  0
  9 23  1  0
 10 29  1  0
 10 11  1  0
 10 12  1  0
 11 30  1  0
 11 21  1  0
 11 31  1  0
 12 32  1  0
 12 33  1  0
M  RAD  1   4   2
M  END
>  <rmg_smiles>  (3) 
[CH2][CH]C.[CH]1CCC2CCCCC12

>  <rmg_adjacency_list>  (3) 
multiplicity 2
1  C u0 p0 c0 {2,S} {3,S} {5,S} {13,S}
2  C u0 p0 c0 {1,S} {4,S} {10,S} {14,S}
3  C u0 p0 c0 {1,S} {6,S} {23,S} {24,S}
4  C u0 p0 c0 {2,S} {7,S} {19,S} {20,S}
5  C u0 p0 c0 {1,S} {8,S} {21,S} {22,S}
6  C u0 p0 c0 {3,S} {7,S} {15,S} {16,S}
7  C u0 p0 c0 {4,S} {6,S} {17,S} {18,S}
8  C u0 p0 c0 {5,S} {10,S} {25,S} {26,S}
9  C u0 p0 c0 {11,S} {27,S} {28,S} {29,S}
10 C u1 p0 c0 {2,S} {8,S} {30,S}
11 C u0 p0 c0 {9,S} {12,S} {31,S}
12 C u0 p0 c0 {11,S} {32,S} {33,S}
13 H u0 p0 c0 {1,S}
14 H u0 p0 c0 {2,S}
15 H u0 p0 c0 {6,S}
16 H u0 p0 c0 {6,S}
17 H u0 p0 c0 {7,S}
18 H u0 p0 c0 {7,S}
19 H u0 p0 c0 {4,S}
20 H u0 p0 c0 {4,S}
21 H u0 p0 c0 {5,S}
22 H u0 p0 c0 {5,S}
23 H u0 p0 c0 {3,S}
24 H u0 p0 c0 {3,S}
25 H u0 p0 c0 {8,S}
26 H u0 p0 c0 {8,S}
27 H u0 p0 c0 {9,S}
28 H u0 p0 c0 {9,S}
29 H u0 p0 c0 {9,S}
30 H u0 p0 c0 {10,S}
31 H u0 p0 c0 {11,S}
32 H u0 p0 c0 {12,S}
33 H u0 p0 c0 {12,S}


>  <multiplicity>  (3) 
2

>  <reaction>  (3) 
rxn_581

>  <type>  (3) 
ts

>  <role_mapnums>  (3) 
{"*2": 21, "*1": 11, "*3": 4, "*0": 10, "*4": 1}

>  <role_mapidx>  (3) 
{"*2": 20, "*1": 10, "*3": 3, "*0": 9, "*4": 0}

>  <ordered_mapped_smiles>  (3) 
[C:1]12([H:13])[C:2]([H:14])([C:5]([H:25])([H:26])[C:9]([H:23])([H:24])[C:4]1[H:22])[C:6]([H:27])([H:28])[C:7]([H:15])([H:16])[C:8]([H:17])([H:18])[C:3]2([H:19])[H:20].[CH:10]([C:11]([H:21])([H:30])[H:31])([CH:12]([H:32])[H:33])[H:29]

>  <mol_properties>  (3) 
{"0": {"label": "*4", "atom_type": "Cs"}, "3": {"label": "*3", "atom_type": "Cs"}, "9": {"label": "*0", "atom_type": "Cs"}, "10": {"label": "*1", "atom_type": "Cs"}, "20": {"label": "*2", "atom_type": "H0"}}

>  <level_of_theory>  (3) 
wb97xd/def2tzvp

>  <lot_method>  (3) 
wb97xd

>  <lot_basis>  (3) 
def2tzvp

>  <spin_multiplicity>  (3) 
2.0

>  <optical_isomers>  (3) 
2.0

>  <modes>  (3) 
IdealGasTranslation(mass=(165.164, 'amu')),         NonlinearRotor(             inertia = ([408.427, 861.789, 888.829

>  <frequency_value>  (3) 
-1690.45

>  <frequency_units>  (3) 
cm^-1

>  <frequency_list>  (3) 
unknown

>  <arkane_path>  (3) 
/home/calvin/Dropbox/PersonalFolders/Calvin/HAb_Converged/rxn_581/output/rxns/TS0/arkane/output.py

>  <path_exists>  (3) 
True

>  <E0_value>  (3) 
-1232820.0

>  <E0_units>  (3) 
kJ/mol

>  <thermo_class>  (3) 
unknown

>  <Cp0_value>  (3) 
unknown

>  <Cp0_units>  (3) 
unknown

>  <CpInf_value>  (3) 
unknown

>  <CpInf_units>  (3) 
unknown

>  <Tmin_value>  (3) 
unknown

>  <Tmin_units>  (3) 
unknown

>  <Tmax_value>  (3) 
unknown

>  <Tmax_units>  (3) 
unknown

>  <polynomials>  (3) 
unknown

>  <H298_value>  (3) 
unknown

>  <H298_units>  (3) 
unknown

>  <S298_value>  (3) 
unknown

>  <S298_units>  (3) 
unknown

>  <Cp_T_value_list>  (3) 
unknown

>  <Cp_T_units>  (3) 
unknown

>  <T_list>  (3) 
unknown

>  <T_units>  (3) 
unknown

>  <yaml_path>  (3) 
unknown

>  <frequencies_cm1>  (3) 
unknown

>  <ZPE_kJmol>  (3) 
unknown

>  <E_elec_kJmol>  (3) 
unknown

>  <E0_minus_Eelec_plus_ZPE_kJmol>  (3) 
unknown

>  <rxn>  (3) 
unknown

>  <species_type>  (3) 
unknown

>  <species_folder>  (3) 
unknown

>  <frequencies_cm1_list>  (3) 
[]

>  <ts_imag_freq_cm1>  (3) 
-1710.9827

>  <ts_freq_out_path>  (3) 
/home/calvin/Dropbox/PersonalFolders/Calvin/HAb_Converged/rxn_581/output/rxns/TS0/geometry/freq.out

>  <E0_kJmol>  (3) 
-1.23282e+06

>  <H298_kJmol>  (3) 
unknown

$$$$

     RDKit          3D

 24 25  0  0  0  0  0  0  0  0999 V2000
   -1.3137    1.2076    0.0526 C   0  0  0  0  0  3  0  0  0  1  0  0
   -2.3065    0.1196    0.2833 C   0  0  0  0  0  0  0  0  0  2  0  0
   -1.7836   -1.0394   -0.5898 C   0  0  0  0  0  0  0  0  0  3  0  0
   -0.2749   -0.7855   -0.6984 C   0  0  0  0  0  0  0  0  0  4  0  0
    0.4655   -1.2917    0.5434 C   0  0  0  0  0  0  0  0  0  5  0  0
    1.8694   -0.7131    0.6745 C   0  0  0  0  0  0  0  0  0  6  0  0
    1.8184    0.8105    0.7119 C   0  0  0  0  0  0  0  0  0  7  0  0
    1.1779    1.3572   -0.5588 C   0  0  0  0  0  0  0  0  0  8  0  0
   -0.2011    0.7528   -0.8316 C   0  0  0  0  0  0  0  0  0  9  0  0
   -1.4277    2.2231    0.4082 H   0  0  0  0  0  0  0  0  0 10  0  0
   -2.3438   -0.1691    1.3425 H   0  0  0  0  0  0  0  0  0 11  0  0
   -3.3295    0.4088    0.0212 H   0  0  0  0  0  0  0  0  0 12  0  0
   -2.2393   -0.9859   -1.5815 H   0  0  0  0  0  0  0  0  0 13  0  0
   -2.0144   -2.0220   -0.1744 H   0  0  0  0  0  0  0  0  0 14  0  0
    0.1520   -1.2674   -1.5825 H   0  0  0  0  0  0  0  0  0 15  0  0
   -0.1033   -1.0202    1.4396 H   0  0  0  0  0  0  0  0  0 16  0  0
    0.4983   -2.3841    0.5177 H   0  0  0  0  0  0  0  0  0 17  0  0
    2.4827   -1.0338   -0.1757 H   0  0  0  0  0  0  0  0  0 18  0  0
    2.3514   -1.1019    1.5744 H   0  0  0  0  0  0  0  0  0 19  0  0
    1.2359    1.1286    1.5834 H   0  0  0  0  0  0  0  0  0 20  0  0
    2.8216    1.2258    0.8314 H   0  0  0  0  0  0  0  0  0 21  0  0
    1.0952    2.4462   -0.5109 H   0  0  0  0  0  0  0  0  0 22  0  0
    1.8331    1.1314   -1.4069 H   0  0  0  0  0  0  0  0  0 23  0  0
   -0.4636    1.0027   -1.8738 H   0  0  0  0  0  0  0  0  0 24  0  0
  1 10  1  0
  1  9  1  0
  1  2  1  0
  2 12  1  0
  2 11  1  0
  2  3  1  0
  3  4  1  0
  3 13  1  0
  3 14  1  0
  4  9  1  0
  4  5  1  0
  4 15  1  0
  5 16  1  0
  5 17  1  0
  5  6  1  0
  6  7  1  0
  6 19  1  0
  6 18  1  0
  7 20  1  0
  7 21  1  0
  7  8  1  0
  8 23  1  0
  8  9  1  0
  8 22  1  0
  9 24  1  0
M  RAD  1   1   2
M  END
>  <rmg_smiles>  (4) 
[CH]1CCC2CCCCC12

>  <rmg_adjacency_list>  (4) 
multiplicity 2
1  C u0 p0 c0 {2,S} {3,S} {4,S} {10,S}
2  C u0 p0 c0 {1,S} {5,S} {9,S} {11,S}
3  C u0 p0 c0 {1,S} {6,S} {14,S} {15,S}
4  C u0 p0 c0 {1,S} {8,S} {12,S} {13,S}
5  C u0 p0 c0 {2,S} {7,S} {20,S} {21,S}
6  C u0 p0 c0 {3,S} {7,S} {16,S} {17,S}
7  C u0 p0 c0 {5,S} {6,S} {18,S} {19,S}
8  C u0 p0 c0 {4,S} {9,S} {22,S} {23,S}
9  C u1 p0 c0 {2,S} {8,S} {24,S}
10 H u0 p0 c0 {1,S}
11 H u0 p0 c0 {2,S}
12 H u0 p0 c0 {4,S}
13 H u0 p0 c0 {4,S}
14 H u0 p0 c0 {3,S}
15 H u0 p0 c0 {3,S}
16 H u0 p0 c0 {6,S}
17 H u0 p0 c0 {6,S}
18 H u0 p0 c0 {7,S}
19 H u0 p0 c0 {7,S}
20 H u0 p0 c0 {5,S}
21 H u0 p0 c0 {5,S}
22 H u0 p0 c0 {8,S}
23 H u0 p0 c0 {8,S}
24 H u0 p0 c0 {9,S}


>  <multiplicity>  (4) 
2

>  <reaction>  (4) 
rxn_581

>  <type>  (4) 
r1

>  <role_mapnums>  (4) 
{}

>  <role_mapidx>  (4) 
{}

>  <ordered_mapped_smiles>  (4) 
[C:1]1([H:10])[C:2]([H:11])([H:12])[C:3]([H:13])([H:14])[C:4]2([H:15])[C:5]([H:16])([H:17])[C:6]([H:18])([H:19])[C:7]([H:20])([H:21])[C:8]([H:22])([H:23])[C:9]12[H:24]

>  <level_of_theory>  (4) 
wb97xd/def2tzvp

>  <lot_method>  (4) 
wb97xd

>  <lot_basis>  (4) 
def2tzvp

>  <spin_multiplicity>  (4) 
2.0

>  <optical_isomers>  (4) 
2.0

>  <modes>  (4) 
IdealGasTranslation(mass=(123.117, 'amu')),         NonlinearRotor(             inertia = ([183.116, 337.78, 420.862

>  <frequency_value>  (4) 
unknown

>  <frequency_units>  (4) 
unknown

>  <frequency_list>  (4) 
unknown

>  <arkane_path>  (4) 
/home/calvin/Dropbox/PersonalFolders/Calvin/HAb_Converged/rxn_581/output/Species/rxn_581_[CH]1CCC2CCCCC12/arkane/output.py

>  <path_exists>  (4) 
True

>  <E0_value>  (4) 
-923521.4034742753

>  <E0_units>  (4) 
kJ/mol

>  <thermo_class>  (4) 
NASA

>  <Cp0_value>  (4) 
33.257888

>  <Cp0_units>  (4) 
J/(mol*K)

>  <CpInf_value>  (4) 
582.01304

>  <CpInf_units>  (4) 
J/(mol*K)

>  <Tmin_value>  (4) 
10.0

>  <Tmin_units>  (4) 
K

>  <Tmax_value>  (4) 
3000.0

>  <Tmax_units>  (4) 
K

>  <polynomials>  (4) 
[{"name": "polynomial1", "class": "NASAPolynomial", "Tmin_value": 10.0, "Tmin_units": "K", "Tmax_value": 528.972455779128, "Tmax_units": "K", "coeffs": [3.9868218800267257, -0.0002706572745000309, 0.00028187632893371514, -4.741050184034835e-07, 2.5734956335824994e-10, -111073965.68706591, 13.539897637614564]}, {"name": "polynomial2", "class": "NASAPolynomial", "Tmin_value": 528.972455779128, "Tmin_units": "K", "Tmax_value": 3000.0, "Tmax_units": "K", "coeffs": [-8.057241794330608, 0.1064450955450352, -6.508787704379979e-05, 1.907252295638734e-08, -2.1508745349439294e-12, -111072910.31254905, 61.90729537273606]}]

>  <H298_value>  (4) 
-220721.245578044

>  <H298_units>  (4) 
kcal/mol

>  <S298_value>  (4) 
89.45134221739195

>  <S298_units>  (4) 
cal/(mol*K)

>  <Cp_T_value_list>  (4) 
[36.878956346585845, 50.12569271862853, 61.88517923543043, 71.97481392014562, 88.08635981771188, 99.80073994362994, 116.53702427589523, 124.49378200225445, 128.77598528640422]

>  <Cp_T_units>  (4) 
cal/(mol*K)

>  <T_list>  (4) 
[300.0, 400.0, 500.0, 600.0, 800.0, 1000.0, 1500.0, 2000.0, 2400.0]

>  <T_units>  (4) 
K

>  <yaml_path>  (4) 
/home/calvin/Dropbox/PersonalFolders/Calvin/HAb_Converged/rxn_581/output/Species/rxn_581_[CH]1CCC2CCCCC12/rxn_581_CH1CCC2CCCCC12.yml

>  <frequencies_cm1>  (4) 
[136.62553992672, 157.51490927016, 211.37954212023996, 286.18848019632, 322.06847849332, 355.62056876684, 367.5897241795999, 411.11954412308, 476.10869319156, 586.10406404732, 659.1619208667998, 679.4263945461199, 776.27148851408, 816.29914594436, 831.37217872176, 862.80923751672, 874.6891221203199, 908.0695377608398, 920.8901993532799, 936.1829756609199, 978.41493537892, 1007.2974756348399, 1019.2666310475998, 1048.87020476212, 1054.7002752987999, 1059.7475095089999, 1090.01031381424, 1111.6207166162799, 1132.16673669372, 1153.45439118572, 1197.1009498796398, 1215.60747531704, 1249.276304341, 1269.96653111016, 1285.0532978581998, 1290.7322947178397, 1302.2482290994799, 1317.86375371716, 1334.75653760436, 1341.808931528, 1361.1738301304, 1369.2082029548, 1377.33871357368, 1391.0452162724, 1392.73449466112, 1461.8919038188399, 1471.2378708393599, 1474.8361711470397, 1479.64992785636, 1487.40275428264, 1490.6165034123997, 2897.1467715814, 2960.3367704960397, 2992.7077392945193, 2999.801335130079, 3001.73782499032, 3002.8296756562, 3006.4005080225998, 3019.7155925580796, 3032.0555651781197, 3045.94747648048, 3049.81358921564, 3053.18527900776, 3057.6694204217197, 3072.8935268761597, 3173.233916372]

>  <ZPE_kJmol>  (4) 
575.1531238351159

>  <E_elec_kJmol>  (4) 
-924096.5565981104

>  <E0_minus_Eelec_plus_ZPE_kJmol>  (4) 
0.0

>  <rxn>  (4) 
rxn_581

>  <species_type>  (4) 
p1

>  <species_folder>  (4) 
rxn_581_[CH]1CCC2CCCCC12

>  <frequencies_cm1_list>  (4) 
[136.62553992672, 157.51490927016, 211.37954212023996, 286.18848019632, 322.06847849332, 355.62056876684, 367.5897241795999, 411.11954412308, 476.10869319156, 586.10406404732, 659.1619208667998, 679.4263945461199, 776.27148851408, 816.29914594436, 831.37217872176, 862.80923751672, 874.6891221203199, 908.0695377608398, 920.8901993532799, 936.1829756609199, 978.41493537892, 1007.2974756348399, 1019.2666310475998, 1048.87020476212, 1054.7002752987999, 1059.7475095089999, 1090.01031381424, 1111.6207166162799, 1132.16673669372, 1153.45439118572, 1197.1009498796398, 1215.60747531704, 1249.276304341, 1269.96653111016, 1285.0532978581998, 1290.7322947178397, 1302.2482290994799, 1317.86375371716, 1334.75653760436, 1341.808931528, 1361.1738301304, 1369.2082029548, 1377.33871357368, 1391.0452162724, 1392.73449466112, 1461.8919038188399, 1471.2378708393599, 1474.8361711470397, 1479.64992785636, 1487.40275428264, 1490.6165034123997, 2897.1467715814, 2960.3367704960397, 2992.7077392945193, 2999.801335130079, 3001.73782499032, 3002.8296756562, 3006.4005080225998, 3019.7155925580796, 3032.0555651781197, 3045.94747648048, 3049.81358921564, 3053.18527900776, 3057.6694204217197, 3072.8935268761597, 3173.233916372]

>  <E0_kJmol>  (4) 
-923521

>  <H298_kJmol>  (4) 
-923498

$$$$

     RDKit          3D

  8  7  0  0  0  0  0  0  0  0999 V2000
   -1.2262   -0.1032    0.0429 C   0  0  0  0  0  0  0  0  0  1  0  0
    0.0344    0.4295    0.2005 C   0  0  0  0  0  0  0  0  0  2  0  0
    1.2024   -0.1933   -0.1813 C   0  0  0  0  0  3  0  0  0  3  0  0
   -2.1090    0.4329    0.3624 H   0  0  0  0  0  0  0  0  0  4  0  0
   -1.3659   -1.0784   -0.4078 H   0  0  0  0  0  0  0  0  0  5  0  0
    0.1132    1.4113    0.6589 H   0  0  0  0  0  0  0  0  0  6  0  0
    2.1658    0.2743   -0.0323 H   0  0  0  0  0  0  0  0  0  7  0  0
    1.1853   -1.1731   -0.6434 H   0  0  0  0  0  0  0  0  0  8  0  0
  1  5  1  0
  1  4  1  0
  1  2  1  0
  2  6  1  0
  2  3  1  0
  3  8  1  0
  3  7  1  0
M  RAD  1   3   2
M  END
>  <rmg_smiles>  (5) 
[CH2][CH][CH2]

>  <rmg_adjacency_list>  (5) 
multiplicity 2
1 C u0 p0 c0 {2,S} {3,S} {4,S}
2 C u1 p0 c0 {1,S} {7,S} {8,S}
3 C u0 p0 c0 {1,S} {5,S} {6,S}
4 H u0 p0 c0 {1,S}
5 H u0 p0 c0 {3,S}
6 H u0 p0 c0 {3,S}
7 H u0 p0 c0 {2,S}
8 H u0 p0 c0 {2,S}


>  <multiplicity>  (5) 
2

>  <reaction>  (5) 
rxn_581

>  <type>  (5) 
r2

>  <role_mapnums>  (5) 
{}

>  <role_mapidx>  (5) 
{}

>  <ordered_mapped_smiles>  (5) 
[CH:1]([CH:2]([C:3]([H:7])[H:8])[H:6])([H:4])[H:5]

>  <level_of_theory>  (5) 
wb97xd/def2tzvp

>  <lot_method>  (5) 
wb97xd

>  <lot_basis>  (5) 
def2tzvp

>  <spin_multiplicity>  (5) 
2.0

>  <optical_isomers>  (5) 
1.0

>  <modes>  (5) 
IdealGasTranslation(mass=(41.0391, 'amu')),         NonlinearRotor(             inertia = ([9.18678, 48.3525, 57.5393

>  <frequency_value>  (5) 
unknown

>  <frequency_units>  (5) 
unknown

>  <frequency_list>  (5) 
unknown

>  <arkane_path>  (5) 
/home/calvin/Dropbox/PersonalFolders/Calvin/HAb_Converged/rxn_581/output/Species/rxn_581_[CH2]C=C/arkane/output.py

>  <path_exists>  (5) 
True

>  <E0_value>  (5) 
-307695.8239419476

>  <E0_units>  (5) 
kJ/mol

>  <thermo_class>  (5) 
NASA

>  <Cp0_value>  (5) 
33.257888

>  <Cp0_units>  (5) 
J/(mol*K)

>  <CpInf_value>  (5) 
182.918384

>  <CpInf_units>  (5) 
J/(mol*K)

>  <Tmin_value>  (5) 
10.0

>  <Tmin_units>  (5) 
K

>  <Tmax_value>  (5) 
3000.0

>  <Tmax_units>  (5) 
K

>  <polynomials>  (5) 
[{"name": "polynomial1", "class": "NASAPolynomial", "Tmin_value": 10.0, "Tmin_units": "K", "Tmax_value": 532.7267436952769, "Tmax_units": "K", "coeffs": [4.120476242700736, -0.01110500746607337, 0.00013118962632593044, -2.295122998736072e-07, 1.327617546042694e-10, -37007258.9235638, 6.732627685136077]}, {"name": "polynomial2", "class": "NASAPolynomial", "Tmin_value": 532.7267436952769, "Tmin_units": "K", "Tmax_value": 3000.0, "Tmax_units": "K", "coeffs": [0.911699466954835, 0.027118425571894478, -1.6222639840263127e-05, 4.752540164453407e-09, -5.404199600895895e-13, -37007117.54936121, 18.310519838179516]}]

>  <H298_value>  (5) 
-73538.08078140329

>  <H298_units>  (5) 
kcal/mol

>  <S298_value>  (5) 
61.52456331648896

>  <S298_units>  (5) 
cal/(mol*K)

>  <Cp_T_value_list>  (5) 
[14.853530963099974, 18.637467651362382, 21.80750730434748, 24.44088072021761, 28.68710434193412, 31.834263999492475, 36.54938793194129, 39.012029638884556, 40.38558701326713]

>  <Cp_T_units>  (5) 
cal/(mol*K)

>  <T_list>  (5) 
[300.0, 400.0, 500.0, 600.0, 800.0, 1000.0, 1500.0, 2000.0, 2400.0]

>  <T_units>  (5) 
K

>  <yaml_path>  (5) 
/home/calvin/Dropbox/PersonalFolders/Calvin/HAb_Converged/rxn_581/output/Species/rxn_581_[CH2]C=C/rxn_581_CH2C=C.yml

>  <frequencies_cm1>  (5) 
[432.19432207015996, 530.70122648556, 552.78545127468, 794.8604177753199, 818.87426543936, 934.1091460942799, 1008.91808417036, 1035.1568350780801, 1186.33351689788, 1269.2386306662397, 1410.5886564931197, 1500.8483115392, 1510.5101598844399, 3121.9787379435197, 3123.6542823616, 3129.68349547256, 3223.1843675896794, 3225.69081723148]

>  <ZPE_kJmol>  (5) 
172.31799451557927

>  <E_elec_kJmol>  (5) 
-307868.1419364632

>  <E0_minus_Eelec_plus_ZPE_kJmol>  (5) 
0.0

>  <rxn>  (5) 
rxn_581

>  <species_type>  (5) 
r0

>  <species_folder>  (5) 
rxn_581_[CH2]C=C

>  <frequencies_cm1_list>  (5) 
[432.19432207015996, 530.70122648556, 552.78545127468, 794.8604177753199, 818.87426543936, 934.1091460942799, 1008.91808417036, 1035.1568350780801, 1186.33351689788, 1269.2386306662397, 1410.5886564931197, 1500.8483115392, 1510.5101598844399, 3121.9787379435197, 3123.6542823616, 3129.68349547256, 3223.1843675896794, 3225.69081723148]

>  <E0_kJmol>  (5) 
-307696

>  <H298_kJmol>  (5) 
-307683

$$$$
