
     RDKit          3D

  7  6  0  0  0  0  0  0  0  0999 V2000
   -0.7962    0.9344   -1.9107 N   0  0  0  0  0  0  0  0  0  1  0  0
   -0.5522    0.7296   -0.8082 C   0  0  0  0  0  2  0  0  0  2  0  0
   -0.2259    0.5401    0.5814 C   0  0  0  0  0  0  0  0  0  3  0  0
    0.4857   -0.6715    0.8964 C   0  0  0  0  0  2  0  0  0  4  0  0
    1.0863   -1.6070    1.1812 N   0  0  0  0  0  0  0  0  0  5  0  0
    0.4172    1.3704    0.8725 H   0  0  0  0  0  0  0  0  0  6  0  0
   -1.0780    0.7092    1.2393 H   0  0  0  0  0  0  0  0  0  7  0  0
  1  2  1  0
  2  3  1  0
  3  4  1  0
  3  6  1  0
  3  7  1  0
  4  5  1  0
M  RAD  2   2   3   4   3
M  END
>  <rmg_smiles>  (1) 
[N][C]C[C][N]

>  <rmg_adjacency_list>  (1) 
1 N u0 p2 c0 {4,S}
2 N u0 p2 c0 {5,S}
3 C u0 p0 c0 {4,S} {5,S} {6,S} {7,S}
4 C u0 p1 c0 {1,S} {3,S}
5 C u0 p1 c0 {2,S} {3,S}
6 H u0 p0 c0 {3,S}
7 H u0 p0 c0 {3,S}


>  <multiplicity>  (1) 
1

>  <reaction>  (1) 
rxn_3164

>  <type>  (1) 
r1h

>  <role_mapnums>  (1) 
{"r1h_a": 3, "r1h_h": 6}

>  <role_mapidx>  (1) 
{"r1h_a": 2, "r1h_h": 5}

>  <ordered_mapped_smiles>  (1) 
[NH2:1][C:2][C:3]([C:4][NH2:5])([H:6])[H:7]

>  <mol_properties>  (1) 
{"2": {"label": "donator", "atom_type": "Cs"}, "5": {"label": "d_hydrogen", "atom_type": "H0"}}

>  <level_of_theory>  (1) 
wb97xd/def2tzvp

>  <lot_method>  (1) 
wb97xd

>  <lot_basis>  (1) 
def2tzvp

>  <spin_multiplicity>  (1) 
1.0

>  <optical_isomers>  (1) 
1.0

>  <modes>  (1) 
IdealGasTranslation(mass=(66.0218, 'amu')),         NonlinearRotor(             inertia = ([23.7671, 171.208, 191.843

>  <frequency_value>  (1) 
unknown

>  <frequency_units>  (1) 
unknown

>  <frequency_list>  (1) 
unknown

>  <arkane_path>  (1) 
/home/calvin/Dropbox/PersonalFolders/Calvin/ATLAS_Converged/NonRMG/rxn_3164/output/Species/rxn_3164_r2_NtCCCtN/arkane/output.py

>  <path_exists>  (1) 
True

>  <E0_value>  (1) 
-590565.6495263865

>  <E0_units>  (1) 
kJ/mol

>  <thermo_class>  (1) 
NASA

>  <Cp0_value>  (1) 
33.257888

>  <Cp0_units>  (1) 
J/(mol*K)

>  <CpInf_value>  (1) 
157.97496800000002

>  <CpInf_units>  (1) 
J/(mol*K)

>  <Tmin_value>  (1) 
10.0

>  <Tmin_units>  (1) 
K

>  <Tmax_value>  (1) 
3000.0

>  <Tmax_units>  (1) 
K

>  <polynomials>  (1) 
[{"name": "polynomial1", "class": "NASAPolynomial", "Tmin_value": 10.0, "Tmin_units": "K", "Tmax_value": 381.2671360317701, "Tmax_units": "K", "coeffs": [3.923518384888164, 0.005792069225387273, 9.370390502108868e-05, -2.657841227650435e-07, 2.3107989402795785e-10, -71028642.17707072, 8.434891986323661]}, {"name": "polynomial2", "class": "NASAPolynomial", "Tmin_value": 381.2671360317701, "Tmin_units": "K", "Tmax_value": 3000.0, "Tmax_units": "K", "coeffs": [3.6593956469030533, 0.02070177496595334, -1.2711294446273225e-05, 3.793964873991964e-09, -4.397428673268674e-13, -71028710.26373495, 8.29742738403007]}]

>  <H298_value>  (1) 
-141144.9278451886

>  <H298_units>  (1) 
kcal/mol

>  <S298_value>  (1) 
69.1255125881735

>  <S298_units>  (1) 
cal/(mol*K)

>  <Cp_T_value_list>  (1) 
[17.46767715625896, 20.14601107641169, 22.41414169108704, 24.37686414792028, 27.518792922312837, 29.816241430861343, 33.166633044338305, 34.84288571038595, 35.73942606368457]

>  <Cp_T_units>  (1) 
cal/(mol*K)

>  <T_list>  (1) 
[300.0, 400.0, 500.0, 600.0, 800.0, 1000.0, 1500.0, 2000.0, 2400.0]

>  <T_units>  (1) 
K

>  <yaml_path>  (1) 
/home/calvin/Dropbox/PersonalFolders/Calvin/ATLAS_Converged/NonRMG/rxn_3164/output/Species/rxn_3164_r2_NtCCCtN/rxn_3164_r2_NtCCCtN.yml

>  <frequencies_cm1>  (1) 
[146.69940739115998, 340.38959532708, 374.73825589771997, 374.9579994279599, 586.0353941941199, 901.58710361876, 932.7014141036799, 987.9943799003199, 1238.72174790416, 1338.31363600012, 1434.8771835699602, 2384.39584472232, 2388.37869620792, 3042.61698860028, 3086.94337884088]

>  <ZPE_kJmol>  (1) 
116.99093307058868

>  <E_elec_kJmol>  (1) 
-590682.6404594571

>  <E0_minus_Eelec_plus_ZPE_kJmol>  (1) 
0.0

>  <rxn>  (1) 
rxn_3164

>  <species_type>  (1) 
r1

>  <species_folder>  (1) 
rxn_3164_r2_NtCCCtN

>  <frequencies_cm1_list>  (1) 
[146.69940739115998, 340.38959532708, 374.73825589771997, 374.9579994279599, 586.0353941941199, 901.58710361876, 932.7014141036799, 987.9943799003199, 1238.72174790416, 1338.31363600012, 1434.8771835699602, 2384.39584472232, 2388.37869620792, 3042.61698860028, 3086.94337884088]

>  <E0_kJmol>  (1) 
-590566

>  <H298_kJmol>  (1) 
-590550

$$$$

     RDKit          3D

  7  7  0  0  0  0  0  0  0  0999 V2000
   -1.6291    0.2021    1.1580 N   0  0  0  0  0  0  0  0  0  1  0  0
   -0.6165    0.0645    0.4284 C   0  0  0  0  0  0  0  0  0  2  0  0
    0.4586    0.8849    0.4481 O   0  0  0  0  0  0  0  0  0  3  0  0
    1.3447    0.3937   -0.4951 N   0  0  0  0  0  0  0  0  0  4  0  0
    0.8852   -0.5981   -1.0306 N   0  0  0  0  0  0  0  0  0  5  0  0
   -0.3647   -0.8835   -0.5042 O   0  0  0  0  0  0  0  0  0  6  0  0
   -2.3132   -0.5540    0.9531 H   0  0  0  0  0  0  0  0  0  7  0  0
  1  2  1  0
  1  7  1  0
  2  3  1  0
  2  6  1  0
  3  4  1  0
  4  5  1  0
  5  6  1  0
M  END
>  <rmg_smiles>  (2) 
[NH][C]1O[N][N]O1

>  <rmg_adjacency_list>  (2) 
1 O u0 p2 c0 {3,S} {6,S}
2 O u0 p2 c0 {4,S} {6,S}
3 N u0 p1 c0 {1,S} {4,S}
4 N u0 p1 c0 {2,S} {3,S}
5 N u0 p1 c0 {6,S} {7,S}
6 C u0 p0 c0 {1,S} {2,S} {5,S}
7 H u0 p0 c0 {5,S}


>  <multiplicity>  (2) 
1

>  <reaction>  (2) 
rxn_3164

>  <type>  (2) 
r2h

>  <role_mapnums>  (2) 
{"r2h_a": 1, "r2h_h": 7}

>  <role_mapidx>  (2) 
{"r2h_a": 0, "r2h_h": 6}

>  <ordered_mapped_smiles>  (2) 
[NH:1]([CH:2]1[O:3][NH:4][NH:5][O:6]1)[H:7]

>  <mol_properties>  (2) 
{"0": {"label": "acceptor", "atom_type": "N3s"}, "6": {"label": "a_hydrogen", "atom_type": "H0"}}

>  <level_of_theory>  (2) 
wb97xd/def2tzvp

>  <lot_method>  (2) 
wb97xd

>  <lot_basis>  (2) 
def2tzvp

>  <spin_multiplicity>  (2) 
1.0

>  <optical_isomers>  (2) 
1.0

>  <modes>  (2) 
IdealGasTranslation(mass=(87.0069, 'amu')),         NonlinearRotor(             inertia = ([48.8575, 120.721, 169.578

>  <frequency_value>  (2) 
unknown

>  <frequency_units>  (2) 
unknown

>  <frequency_list>  (2) 
unknown

>  <arkane_path>  (2) 
/home/calvin/Dropbox/PersonalFolders/Calvin/ATLAS_Converged/NonRMG/rxn_3164/output/Species/rxn_3164_p1_N=c1onno1/arkane/output.py

>  <path_exists>  (2) 
True

>  <E0_value>  (2) 
-927513.3956974436

>  <E0_units>  (2) 
kJ/mol

>  <thermo_class>  (2) 
NASA

>  <Cp0_value>  (2) 
33.257888

>  <Cp0_units>  (2) 
J/(mol*K)

>  <CpInf_value>  (2) 
157.97496800000002

>  <CpInf_units>  (2) 
J/(mol*K)

>  <Tmin_value>  (2) 
10.0

>  <Tmin_units>  (2) 
K

>  <Tmax_value>  (2) 
3000.0

>  <Tmax_units>  (2) 
K

>  <polynomials>  (2) 
[{"name": "polynomial1", "class": "NASAPolynomial", "Tmin_value": 10.0, "Tmin_units": "K", "Tmax_value": 594.5510705426203, "Tmax_units": "K", "coeffs": [4.064128165333628, -0.006464132682369532, 0.00012609118943386684, -2.2452471871589397e-07, 1.2482881080850414e-10, -111554092.36102824, 9.73736041625877]}, {"name": "polynomial2", "class": "NASAPolynomial", "Tmin_value": 594.5510705426203, "Tmin_units": "K", "Tmax_value": 3000.0, "Tmax_units": "K", "coeffs": [2.6619435988700717, 0.02700063330274151, -1.8966063744434276e-05, 6.109629991067157e-09, -7.351884988814937e-13, -111554350.36753283, 12.201082878024012]}]

>  <H298_value>  (2) 
-221677.73393283132

>  <H298_units>  (2) 
kcal/mol

>  <S298_value>  (2) 
69.21240690289005

>  <S298_units>  (2) 
cal/(mol*K)

>  <Cp_T_value_list>  (2) 
[16.736335365541446, 20.824137553247738, 24.027452944596273, 26.348252322457366, 29.711055843773885, 31.936305555783512, 34.552273976473494, 35.596788664173474, 36.33939231381346]

>  <Cp_T_units>  (2) 
cal/(mol*K)

>  <T_list>  (2) 
[300.0, 400.0, 500.0, 600.0, 800.0, 1000.0, 1500.0, 2000.0, 2400.0]

>  <T_units>  (2) 
K

>  <yaml_path>  (2) 
/home/calvin/Dropbox/PersonalFolders/Calvin/ATLAS_Converged/NonRMG/rxn_3164/output/Species/rxn_3164_p1_N=c1onno1/rxn_3164_p1_N=c1onno1.yml

>  <frequencies_cm1>  (2) 
[208.89369343439998, 445.44073675243993, 644.52150816456, 714.2214091625599, 757.75122910604, 783.81143839544, 819.0802749989599, 941.40875148944, 996.4545058145599, 1049.54316932348, 1062.20589025356, 1273.50302854996, 1598.9500638207198, 1829.7357064552798, 3558.0254387782]

>  <ZPE_kJmol>  (2) 
99.78979924741076

>  <E_elec_kJmol>  (2) 
-927613.1854966908

>  <E0_minus_Eelec_plus_ZPE_kJmol>  (2) 
0.0

>  <rxn>  (2) 
rxn_3164

>  <species_type>  (2) 
p0

>  <species_folder>  (2) 
rxn_3164_p1_N=c1onno1

>  <frequencies_cm1_list>  (2) 
[208.89369343439998, 445.44073675243993, 644.52150816456, 714.2214091625599, 757.75122910604, 783.81143839544, 819.0802749989599, 941.40875148944, 996.4545058145599, 1049.54316932348, 1062.20589025356, 1273.50302854996, 1598.9500638207198, 1829.7357064552798, 3558.0254387782]

>  <E0_kJmol>  (2) 
-927513

>  <H298_kJmol>  (2) 
-927500

$$$$

     RDKit          3D

 13 12  0  0  0  0  0  0  0  0999 V2000
   -0.2922    1.1730    1.1685 N   0  0  0  0  0  2  0  0  0  1  0  0
    0.7204    1.0353    0.4389 C   0  0  0  0  0  0  0  0  0  2  0  0
    1.7955    1.8558    0.4586 O   0  0  0  0  0  0  0  0  0  3  0  0
    2.6816    1.3646   -0.4846 N   0  0  0  0  0  0  0  0  0  4  0  0
    2.2221    0.3728   -1.0200 N   0  0  0  0  0  0  0  0  0  5  0  0
    0.9722    0.0874   -0.4936 O   0  0  0  0  0  0  0  0  0  6  0  0
   -2.4850   -0.3663   -1.9251 N   0  0  0  0  0  0  0  0  0  7  0  0
   -2.2410   -0.5711   -0.8225 C   0  0  0  0  0  0  0  0  0  8  0  0
   -1.9147   -0.7606    0.5671 C   0  0  0  0  0  0  0  0  0  9  0  0
   -1.2032   -1.9722    0.8820 C   0  0  0  0  0  0  0  0  0 10  0  0
   -0.6025   -2.9077    1.1668 N   0  0  0  0  0  0  0  0  0 11  0  0
   -1.1606    0.2132    0.9084 H   0  0  0  0  0  0  0  0  0 12  0  0
   -2.7669   -0.5914    1.2250 H   0  0  0  0  0  0  0  0  0 13  0  0
  1  2  1  0
  2  3  1  0
  2  6  1  0
  3  4  1  0
  4  5  1  0
  5  6  1  0
  7  8  1  0
  8  9  1  0
  9 12  1  0
  9 10  1  0
  9 13  1  0
 10 11  1  0
M  RAD  1   1   2
M  END
>  <rmg_smiles>  (3) 
[N][C]1O[N][N]O1.[N][C]C[C][N]

>  <rmg_adjacency_list>  (3) 
multiplicity 2
1  O u0 p2 c0 {3,S} {9,S}
2  O u0 p2 c0 {4,S} {9,S}
3  N u0 p1 c0 {1,S} {4,S}
4  N u0 p1 c0 {2,S} {3,S}
5  N u1 p2 c0 {9,S}
6  N u0 p2 c0 {10,S}
7  N u0 p2 c0 {11,S}
8  C u0 p0 c0 {10,S} {11,S} {12,S} {13,S}
9  C u0 p0 c0 {1,S} {2,S} {5,S}
10 C u0 p1 c0 {6,S} {8,S}
11 C u0 p1 c0 {7,S} {8,S}
12 H u0 p0 c0 {8,S}
13 H u0 p0 c0 {8,S}


>  <multiplicity>  (3) 
2

>  <reaction>  (3) 
rxn_3164

>  <type>  (3) 
ts

>  <role_mapnums>  (3) 
{"*2": 12, "*1": 9, "*3": 1, "*0": 8, "*4": 2}

>  <role_mapidx>  (3) 
{"*2": 11, "*1": 8, "*3": 0, "*0": 7, "*4": 1}

>  <ordered_mapped_smiles>  (3) 
[NH:1][CH:2]1[O:3][NH:4][NH:5][O:6]1.[NH2:7][CH2:8][C:9]([CH2:10][NH2:11])([H:12])[H:13]

>  <mol_properties>  (3) 
{"0": {"label": "*3", "atom_type": "N1s"}, "1": {"label": "*4", "atom_type": "Cs"}, "7": {"label": "*0", "atom_type": "C2s"}, "8": {"label": "*1", "atom_type": "Cs"}, "11": {"label": "*2", "atom_type": "H0"}}

>  <level_of_theory>  (3) 
wb97xd/def2tzvp

>  <lot_method>  (3) 
wb97xd

>  <lot_basis>  (3) 
def2tzvp

>  <spin_multiplicity>  (3) 
2.0

>  <optical_isomers>  (3) 
1.0

>  <modes>  (3) 
IdealGasTranslation(mass=(152.021, 'amu')),         NonlinearRotor(             inertia = ([282.432, 728.023, 790.878

>  <frequency_value>  (3) 
-1780.76

>  <frequency_units>  (3) 
cm^-1

>  <frequency_list>  (3) 
unknown

>  <arkane_path>  (3) 
/home/calvin/Dropbox/PersonalFolders/Calvin/ATLAS_Converged/NonRMG/rxn_3164/output/rxns/TS0/arkane/output.py

>  <path_exists>  (3) 
True

>  <E0_value>  (3) 
-1516310.0

>  <E0_units>  (3) 
kJ/mol

>  <thermo_class>  (3) 
unknown

>  <Cp0_value>  (3) 
unknown

>  <Cp0_units>  (3) 
unknown

>  <CpInf_value>  (3) 
unknown

>  <CpInf_units>  (3) 
unknown

>  <Tmin_value>  (3) 
unknown

>  <Tmin_units>  (3) 
unknown

>  <Tmax_value>  (3) 
unknown

>  <Tmax_units>  (3) 
unknown

>  <polynomials>  (3) 
unknown

>  <H298_value>  (3) 
unknown

>  <H298_units>  (3) 
unknown

>  <S298_value>  (3) 
unknown

>  <S298_units>  (3) 
unknown

>  <Cp_T_value_list>  (3) 
unknown

>  <Cp_T_units>  (3) 
unknown

>  <T_list>  (3) 
unknown

>  <T_units>  (3) 
unknown

>  <yaml_path>  (3) 
unknown

>  <frequencies_cm1>  (3) 
unknown

>  <ZPE_kJmol>  (3) 
unknown

>  <E_elec_kJmol>  (3) 
unknown

>  <E0_minus_Eelec_plus_ZPE_kJmol>  (3) 
unknown

>  <rxn>  (3) 
unknown

>  <species_type>  (3) 
unknown

>  <species_folder>  (3) 
unknown

>  <frequencies_cm1_list>  (3) 
[]

>  <ts_imag_freq_cm1>  (3) 
-1802.391

>  <ts_freq_out_path>  (3) 
/home/calvin/Dropbox/PersonalFolders/Calvin/ATLAS_Converged/NonRMG/rxn_3164/output/rxns/TS0/geometry/freq.out

>  <E0_kJmol>  (3) 
-1.51631e+06

>  <H298_kJmol>  (3) 
unknown

$$$$

     RDKit          3D

  6  5  0  0  0  0  0  0  0  0999 V2000
    2.2462   -0.4182   -0.5446 N   0  0  0  0  0  2  0  0  0  1  0  0
    1.2137   -0.0678   -0.1600 C   0  0  0  0  0  0  0  0  0  2  0  0
   -0.0159    0.3825    0.3184 C   0  0  0  0  0  0  0  0  0  3  0  0
   -1.1977   -0.3187    0.0838 C   0  0  0  0  0  0  0  0  0  4  0  0
   -2.1924   -0.8799   -0.0960 N   0  0  0  0  0  0  0  0  0  5  0  0
   -0.0540    1.3020    0.8877 H   0  0  0  0  0  0  0  0  0  6  0  0
  1  2  1  0
  2  3  1  0
  3  4  1  0
  3  6  1  0
  4  5  1  0
M  RAD  1   1   2
M  END
>  <rmg_smiles>  (4) 
[N][C][CH][C][N]

>  <rmg_adjacency_list>  (4) 
multiplicity 2
1 N u1 p2 c0 {4,S}
2 N u0 p2 c0 {5,S}
3 C u0 p0 c0 {4,S} {5,S} {6,S}
4 C u0 p1 c0 {1,S} {3,S}
5 C u0 p1 c0 {2,S} {3,S}
6 H u0 p0 c0 {3,S}


>  <multiplicity>  (4) 
2

>  <reaction>  (4) 
rxn_3164

>  <type>  (4) 
r1

>  <role_mapnums>  (4) 
{}

>  <role_mapidx>  (4) 
{}

>  <ordered_mapped_smiles>  (4) 
[NH:1][CH2:2][CH:3]([CH2:4][NH2:5])[H:6]

>  <level_of_theory>  (4) 
wb97xd/def2tzvp

>  <lot_method>  (4) 
wb97xd

>  <lot_basis>  (4) 
def2tzvp

>  <spin_multiplicity>  (4) 
2.0

>  <optical_isomers>  (4) 
1.0

>  <modes>  (4) 
IdealGasTranslation(mass=(65.014, 'amu')),         NonlinearRotor(             inertia = ([16.2864, 176.463, 192.749

>  <frequency_value>  (4) 
unknown

>  <frequency_units>  (4) 
unknown

>  <frequency_list>  (4) 
unknown

>  <arkane_path>  (4) 
/home/calvin/Dropbox/PersonalFolders/Calvin/ATLAS_Converged/NonRMG/rxn_3164/output/Species/rxn_3164_p2_NtCsbr-CH-sbrCtN/arkane/output.py

>  <path_exists>  (4) 
True

>  <E0_value>  (4) 
-588895.7263989138

>  <E0_units>  (4) 
kJ/mol

>  <thermo_class>  (4) 
NASA

>  <Cp0_value>  (4) 
33.257888

>  <Cp0_units>  (4) 
J/(mol*K)

>  <CpInf_value>  (4) 
133.031552

>  <CpInf_units>  (4) 
J/(mol*K)

>  <Tmin_value>  (4) 
10.0

>  <Tmin_units>  (4) 
K

>  <Tmax_value>  (4) 
3000.0

>  <Tmax_units>  (4) 
K

>  <polynomials>  (4) 
[{"name": "polynomial1", "class": "NASAPolynomial", "Tmin_value": 10.0, "Tmin_units": "K", "Tmax_value": 446.78829279719486, "Tmax_units": "K", "coeffs": [3.902114061788269, 0.006806461240620306, 8.01696080685902e-05, -2.2030458010893222e-07, 1.740397164523871e-10, -70827794.84397617, 8.911872080286763]}, {"name": "polynomial2", "class": "NASAPolynomial", "Tmin_value": 446.78829279719486, "Tmin_units": "K", "Tmax_value": 3000.0, "Tmax_units": "K", "coeffs": [4.8070218940619105, 0.016288953242252213, -1.0700376665569692e-05, 3.372496266088477e-09, -4.0768719490369526e-13, -70828051.20951407, 3.3111979082645555]}]

>  <H298_value>  (4) 
-140745.83823301544

>  <H298_units>  (4) 
kcal/mol

>  <S298_value>  (4) 
69.81130509682312

>  <S298_units>  (4) 
cal/(mol*K)

>  <Cp_T_value_list>  (4) 
[17.131340009915768, 19.490043365124276, 21.208433426177645, 22.661866802765335, 24.938791442789526, 26.54988872274361, 28.780438976975784, 29.888374151930545, 30.5267623724279]

>  <Cp_T_units>  (4) 
cal/(mol*K)

>  <T_list>  (4) 
[300.0, 400.0, 500.0, 600.0, 800.0, 1000.0, 1500.0, 2000.0, 2400.0]

>  <T_units>  (4) 
K

>  <yaml_path>  (4) 
/home/calvin/Dropbox/PersonalFolders/Calvin/ATLAS_Converged/NonRMG/rxn_3164/output/Species/rxn_3164_p2_NtCsbr-CH-sbrCtN/rxn_3164_p2_NtCsbr-CH-sbrCtN.yml

>  <frequencies_cm1>  (4) 
[151.55436601239998, 372.3897469182799, 386.11685057295995, 413.2620435429199, 612.0612685569199, 652.9541661375199, 948.54354923692, 1103.9708949698002, 1359.8279010076799, 2169.37680038248, 2244.2818762530396, 3179.7369514700404]

>  <ZPE_kJmol>  (4) 
81.31065708369657

>  <E_elec_kJmol>  (4) 
-588977.0370559974

>  <E0_minus_Eelec_plus_ZPE_kJmol>  (4) 
0.0

>  <rxn>  (4) 
rxn_3164

>  <species_type>  (4) 
p1

>  <species_folder>  (4) 
rxn_3164_p2_NtCsbr-CH-sbrCtN

>  <frequencies_cm1_list>  (4) 
[151.55436601239998, 372.3897469182799, 386.11685057295995, 413.2620435429199, 612.0612685569199, 652.9541661375199, 948.54354923692, 1103.9708949698002, 1359.8279010076799, 2169.37680038248, 2244.2818762530396, 3179.7369514700404]

>  <E0_kJmol>  (4) 
-588896

>  <H298_kJmol>  (4) 
-588881

$$$$

     RDKit          3D

  6  6  0  0  0  0  0  0  0  0999 V2000
    1.9594    0.0134   -0.3734 N   0  0  0  0  0  2  0  0  0  1  0  0
    0.7437    0.0051   -0.0788 C   0  0  0  0  0  0  0  0  0  2  0  0
   -0.0745    1.0868    0.0233 O   0  0  0  0  0  0  0  0  0  3  0  0
   -1.3223    0.5972    0.3682 N   0  0  0  0  0  0  0  0  0  4  0  0
   -1.2899   -0.6150    0.4676 N   0  0  0  0  0  0  0  0  0  5  0  0
   -0.0165   -1.0874    0.2015 O   0  0  0  0  0  0  0  0  0  6  0  0
  1  2  1  0
  2  3  1  0
  2  6  1  0
  3  4  1  0
  4  5  1  0
  5  6  1  0
M  RAD  1   1   2
M  END
>  <rmg_smiles>  (5) 
[N][C]1O[N][N]O1

>  <rmg_adjacency_list>  (5) 
multiplicity 2
1 O u0 p2 c0 {3,S} {6,S}
2 O u0 p2 c0 {4,S} {6,S}
3 N u0 p1 c0 {1,S} {4,S}
4 N u0 p1 c0 {2,S} {3,S}
5 N u1 p2 c0 {6,S}
6 C u0 p0 c0 {1,S} {2,S} {5,S}


>  <multiplicity>  (5) 
2

>  <reaction>  (5) 
rxn_3164

>  <type>  (5) 
r2

>  <role_mapnums>  (5) 
{}

>  <role_mapidx>  (5) 
{}

>  <ordered_mapped_smiles>  (5) 
[NH:1][CH:2]1[O:3][NH:4][NH:5][O:6]1

>  <level_of_theory>  (5) 
wb97xd/def2tzvp

>  <lot_method>  (5) 
wb97xd

>  <lot_basis>  (5) 
def2tzvp

>  <spin_multiplicity>  (5) 
2.0

>  <optical_isomers>  (5) 
1.0

>  <modes>  (5) 
IdealGasTranslation(mass=(85.999, 'amu')),         NonlinearRotor(             inertia = ([48.4503, 114.569, 163.019

>  <frequency_value>  (5) 
unknown

>  <frequency_units>  (5) 
unknown

>  <frequency_list>  (5) 
unknown

>  <arkane_path>  (5) 
/home/calvin/Dropbox/PersonalFolders/Calvin/ATLAS_Converged/NonRMG/rxn_3164/output/Species/rxn_3164_r1_sbr-N-sbr=c1onno1/arkane/output.py

>  <path_exists>  (5) 
True

>  <E0_value>  (5) 
-925766.1233507326

>  <E0_units>  (5) 
kJ/mol

>  <thermo_class>  (5) 
NASA

>  <Cp0_value>  (5) 
33.257888

>  <Cp0_units>  (5) 
J/(mol*K)

>  <CpInf_value>  (5) 
133.031552

>  <CpInf_units>  (5) 
J/(mol*K)

>  <Tmin_value>  (5) 
10.0

>  <Tmin_units>  (5) 
K

>  <Tmax_value>  (5) 
3000.0

>  <Tmax_units>  (5) 
K

>  <polynomials>  (5) 
[{"name": "polynomial1", "class": "NASAPolynomial", "Tmin_value": 10.0, "Tmin_units": "K", "Tmax_value": 616.0864984642515, "Tmax_units": "K", "coeffs": [3.94812055354869, 0.002870632430470056, 6.601813711413239e-05, -1.1874693803665765e-07, 6.345849341330536e-11, -111343943.32258263, 9.377120967783604]}, {"name": "polynomial2", "class": "NASAPolynomial", "Tmin_value": 616.0864984642515, "Tmin_units": "K", "Tmax_value": 3000.0, "Tmax_units": "K", "coeffs": [2.4544566455499175, 0.02517036301302165, -1.8957852591200607e-05, 6.406820502487897e-09, -7.999640326918053e-13, -111343998.43927236, 13.91872622116066]}]

>  <H298_value>  (5) 
-221260.06538606877

>  <H298_units>  (5) 
kcal/mol

>  <S298_value>  (5) 
69.02430482099071

>  <S298_units>  (5) 
cal/(mol*K)

>  <Cp_T_value_list>  (5) 
[16.01447807468723, 19.24412536395936, 21.88065311931888, 23.870148628394773, 26.6491311769416, 28.365034926557463, 30.06252774055981, 30.64056177383133, 31.185424153668]

>  <Cp_T_units>  (5) 
cal/(mol*K)

>  <T_list>  (5) 
[300.0, 400.0, 500.0, 600.0, 800.0, 1000.0, 1500.0, 2000.0, 2400.0]

>  <T_units>  (5) 
K

>  <yaml_path>  (5) 
/home/calvin/Dropbox/PersonalFolders/Calvin/ATLAS_Converged/NonRMG/rxn_3164/output/Species/rxn_3164_r1_sbr-N-sbr=c1onno1/rxn_3164_r1_sbr-N-sbr=c1onno1.yml

>  <frequencies_cm1>  (5) 
[203.66105062056, 421.06293886643994, 625.6235645639199, 691.3131461350399, 746.0704870767199, 784.21659052932, 934.89884940608, 1008.3206564475199, 1041.0761764239198, 1163.2398452667198, 1617.8480074213599, 1768.29678879724]

>  <ZPE_kJmol>  (5) 
65.82829353267302

>  <E_elec_kJmol>  (5) 
-925831.9516442652

>  <E0_minus_Eelec_plus_ZPE_kJmol>  (5) 
0.0

>  <rxn>  (5) 
rxn_3164

>  <species_type>  (5) 
r0

>  <species_folder>  (5) 
rxn_3164_r1_sbr-N-sbr=c1onno1

>  <frequencies_cm1_list>  (5) 
[203.66105062056, 421.06293886643994, 625.6235645639199, 691.3131461350399, 746.0704870767199, 784.21659052932, 934.89884940608, 1008.3206564475199, 1041.0761764239198, 1163.2398452667198, 1617.8480074213599, 1768.29678879724]

>  <E0_kJmol>  (5) 
-925766

>  <H298_kJmol>  (5) 
-925752

$$$$
