
     RDKit          3D

  7  6  0  0  0  0  0  0  0  0999 V2000
    0.3225   -0.1566   -1.3041 C   0  0  0  0  0  2  0  0  0  1  0  0
    0.0236   -0.0538   -0.1425 C   0  0  0  0  0  2  0  0  0  2  0  0
   -0.3082    0.1427    1.2228 C   0  0  0  0  0  0  0  0  0  3  0  0
    0.5836   -0.2784   -2.3276 H   0  0  0  0  0  0  0  0  0  4  0  0
   -0.0105    1.1402    1.5384 H   0  0  0  0  0  0  0  0  0  5  0  0
    0.2734   -0.4434    1.9310 H   0  0  0  0  0  0  0  0  0  6  0  0
   -1.3732    0.1359    1.4430 H   0  0  0  0  0  0  0  0  0  7  0  0
  1  4  1  0
  1  2  1  0
  2  3  1  0
  3  6  1  0
  3  7  1  0
  3  5  1  0
M  RAD  2   1   3   2   3
M  END
>  <rmg_smiles>  (1) 
[CH][C]C

>  <rmg_adjacency_list>  (1) 
1 C u0 p0 c0 {2,S} {4,S} {5,S} {6,S}
2 C u0 p1 c0 {1,S} {3,S}
3 C u0 p1 c0 {2,S} {7,S}
4 H u0 p0 c0 {1,S}
5 H u0 p0 c0 {1,S}
6 H u0 p0 c0 {1,S}
7 H u0 p0 c0 {3,S}


>  <multiplicity>  (1) 
1

>  <reaction>  (1) 
rxn_1255

>  <type>  (1) 
r1h

>  <role_mapnums>  (1) 
{"r1h_a": 3, "r1h_h": 5}

>  <role_mapidx>  (1) 
{"r1h_a": 2, "r1h_h": 4}

>  <ordered_mapped_smiles>  (1) 
[C:1]([C:2][C:3]([H:5])([H:6])[H:7])[H:4]

>  <mol_properties>  (1) 
{"2": {"label": "donator", "atom_type": "Cs"}, "4": {"label": "d_hydrogen", "atom_type": "H0"}}

>  <level_of_theory>  (1) 
wb97xd/def2tzvp

>  <lot_method>  (1) 
wb97xd

>  <lot_basis>  (1) 
def2tzvp

>  <spin_multiplicity>  (1) 
1.0

>  <optical_isomers>  (1) 
1.0

>  <modes>  (1) 
IdealGasTranslation(mass=(40.0313, 'amu')),         NonlinearRotor(             inertia = ([3.14896, 58.5627, 58.5628

>  <frequency_value>  (1) 
unknown

>  <frequency_units>  (1) 
unknown

>  <frequency_list>  (1) 
unknown

>  <arkane_path>  (1) 
/home/calvin/Dropbox/PersonalFolders/Calvin/HAb_Converged/rxn_1255/output/Species/rxn_1255_CtCC/arkane/output.py

>  <path_exists>  (1) 
True

>  <E0_value>  (1) 
-306134.23771519226

>  <E0_units>  (1) 
kJ/mol

>  <thermo_class>  (1) 
NASA

>  <Cp0_value>  (1) 
33.257888

>  <Cp0_units>  (1) 
J/(mol*K)

>  <CpInf_value>  (1) 
157.97496800000002

>  <CpInf_units>  (1) 
J/(mol*K)

>  <Tmin_value>  (1) 
10.0

>  <Tmin_units>  (1) 
K

>  <Tmax_value>  (1) 
3000.0

>  <Tmax_units>  (1) 
K

>  <polynomials>  (1) 
[{"name": "polynomial1", "class": "NASAPolynomial", "Tmin_value": 10.0, "Tmin_units": "K", "Tmax_value": 432.7570457536586, "Tmax_units": "K", "coeffs": [3.9797872721783007, 0.0012495811779551272, 5.6294196303513694e-05, -1.0182025216581548e-07, 6.043505350989284e-11, -36819443.321551986, 4.877022759632036]}, {"name": "polynomial2", "class": "NASAPolynomial", "Tmin_value": 432.7570457536586, "Tmin_units": "K", "Tmax_value": 3000.0, "Tmax_units": "K", "coeffs": [1.8482488679261548, 0.020955787311649748, -1.2025217015703147e-05, 3.449280939574018e-09, -3.914023780269935e-13, -36819258.87384146, 13.374670545299223]}]

>  <H298_value>  (1) 
-73164.72574977479

>  <H298_units>  (1) 
kcal/mol

>  <S298_value>  (1) 
58.90709306772092

>  <S298_units>  (1) 
cal/(mol*K)

>  <Cp_T_value_list>  (1) 
[14.231411982223385, 16.92569828262598, 19.32863505161705, 21.43592113918368, 24.884700514699873, 27.496375671717598, 31.566855118352027, 33.76415845868588, 34.923080757091356]

>  <Cp_T_units>  (1) 
cal/(mol*K)

>  <T_list>  (1) 
[300.0, 400.0, 500.0, 600.0, 800.0, 1000.0, 1500.0, 2000.0, 2400.0]

>  <T_units>  (1) 
K

>  <yaml_path>  (1) 
/home/calvin/Dropbox/PersonalFolders/Calvin/HAb_Converged/rxn_1255/output/Species/rxn_1255_CtCC/rxn_1255_CtCC.yml

>  <frequencies_cm1>  (1) 
[351.89179573808, 352.26261294536, 684.0272747105199, 684.34315603524, 939.24565111364, 1048.18350623012, 1048.35518086312, 1402.57488462468, 1465.46960317056, 1465.7648835393202, 2230.0054137727598, 3022.8812727906, 3095.33483490192, 3095.7125190945194, 3438.9862482559997]

>  <ZPE_kJmol>  (1) 
145.49608455161717

>  <E_elec_kJmol>  (1) 
-306279.7337997439

>  <E0_minus_Eelec_plus_ZPE_kJmol>  (1) 
0.0

>  <rxn>  (1) 
rxn_1255

>  <species_type>  (1) 
r0

>  <species_folder>  (1) 
rxn_1255_CtCC

>  <frequencies_cm1_list>  (1) 
[351.89179573808, 352.26261294536, 684.0272747105199, 684.34315603524, 939.24565111364, 1048.18350623012, 1048.35518086312, 1402.57488462468, 1465.46960317056, 1465.7648835393202, 2230.0054137727598, 3022.8812727906, 3095.33483490192, 3095.7125190945194, 3438.9862482559997]

>  <E0_kJmol>  (1) 
-306134

>  <H298_kJmol>  (1) 
-306121

$$$$

     RDKit          3D

  8  7  0  0  0  0  0  0  0  0999 V2000
   -0.3698   -1.3161   -0.5190 H   0  0  0  0  0  0  0  0  0  1  0  0
   -0.6106    0.5971   -2.2393 C   0  0  0  0  0  0  0  0  0  2  0  0
   -0.2340    0.7519   -0.9700 C   0  0  0  0  0  0  0  0  0  3  0  0
   -0.0827   -0.3663   -0.0677 C   0  0  0  0  0  0  0  0  0  4  0  0
    0.4105   -0.4088    1.4427 S   0  0  0  0  0  0  0  0  0  5  0  0
   -0.7111    1.4520   -2.8961 H   0  0  0  0  0  0  0  0  0  6  0  0
   -0.8142   -0.3807   -2.6589 H   0  0  0  0  0  0  0  0  0  7  0  0
   -0.0190    1.7388   -0.5698 H   0  0  0  0  0  0  0  0  0  8  0  0
  1  4  1  0
  2  7  1  0
  2  6  1  0
  2  3  1  0
  3  4  1  0
  3  8  1  0
  4  5  1  0
M  END
>  <rmg_smiles>  (2) 
[CH2][CH][CH][S]

>  <rmg_adjacency_list>  (2) 
1 S u0 p2 c0 {4,S}
2 C u0 p0 c0 {3,S} {4,S} {5,S}
3 C u0 p0 c0 {2,S} {7,S} {8,S}
4 C u0 p0 c0 {1,S} {2,S} {6,S}
5 H u0 p0 c0 {2,S}
6 H u0 p0 c0 {4,S}
7 H u0 p0 c0 {3,S}
8 H u0 p0 c0 {3,S}


>  <multiplicity>  (2) 
1

>  <reaction>  (2) 
rxn_1255

>  <type>  (2) 
r2h

>  <role_mapnums>  (2) 
{"r2h_a": 4, "r2h_h": 1}

>  <role_mapidx>  (2) 
{"r2h_a": 3, "r2h_h": 0}

>  <ordered_mapped_smiles>  (2) 
[H:1][CH:4]([CH:3]([CH:2]([H:6])[H:7])[H:8])[SH:5]

>  <mol_properties>  (2) 
{"0": {"label": "a_hydrogen", "atom_type": "H0"}, "3": {"label": "acceptor", "atom_type": "Cs"}}

>  <level_of_theory>  (2) 
wb97xd/def2tzvp

>  <lot_method>  (2) 
wb97xd

>  <lot_basis>  (2) 
def2tzvp

>  <spin_multiplicity>  (2) 
1.0

>  <optical_isomers>  (2) 
1.0

>  <modes>  (2) 
IdealGasTranslation(mass=(72.0034, 'amu')),         NonlinearRotor(             inertia = ([10.8259, 179.445, 190.271

>  <frequency_value>  (2) 
unknown

>  <frequency_units>  (2) 
unknown

>  <frequency_list>  (2) 
unknown

>  <arkane_path>  (2) 
/home/calvin/Dropbox/PersonalFolders/Calvin/HAb_Converged/rxn_1255/output/Species/rxn_1255_C=CC=S/arkane/output.py

>  <path_exists>  (2) 
True

>  <E0_value>  (2) 
-1351663.0036055504

>  <E0_units>  (2) 
kJ/mol

>  <thermo_class>  (2) 
NASA

>  <Cp0_value>  (2) 
33.257888

>  <Cp0_units>  (2) 
J/(mol*K)

>  <CpInf_value>  (2) 
182.918384

>  <CpInf_units>  (2) 
J/(mol*K)

>  <Tmin_value>  (2) 
10.0

>  <Tmin_units>  (2) 
K

>  <Tmax_value>  (2) 
3000.0

>  <Tmax_units>  (2) 
K

>  <polynomials>  (2) 
[{"name": "polynomial1", "class": "NASAPolynomial", "Tmin_value": 10.0, "Tmin_units": "K", "Tmax_value": 379.2644192115922, "Tmax_units": "K", "coeffs": [3.9765643065430916, 0.0016004709541293095, 8.72904253733476e-05, -1.7911724885444054e-07, 1.2101661725986147e-10, -162567509.24915665, 9.120160110672158]}, {"name": "polynomial2", "class": "NASAPolynomial", "Tmin_value": 379.2644192115922, "Tmin_units": "K", "Tmax_value": 3000.0, "Tmax_units": "K", "coeffs": [1.464888744558327, 0.0281037867234722, -1.7583624528695405e-05, 5.321955350531072e-09, -6.214743427137124e-13, -162567318.8273217, 18.801153395762828]}]

>  <H298_value>  (2) 
-323051.77369567833

>  <H298_units>  (2) 
kcal/mol

>  <S298_value>  (2) 
69.12773786002882

>  <S298_units>  (2) 
cal/(mol*K)

>  <Cp_T_value_list>  (2) 
[16.805632008963112, 20.304717440143907, 23.344267700018552, 25.964949893337177, 30.135357981253517, 33.15759755729083, 37.504149039419545, 39.684548396616805, 40.90462524755872]

>  <Cp_T_units>  (2) 
cal/(mol*K)

>  <T_list>  (2) 
[300.0, 400.0, 500.0, 600.0, 800.0, 1000.0, 1500.0, 2000.0, 2400.0]

>  <T_units>  (2) 
K

>  <yaml_path>  (2) 
/home/calvin/Dropbox/PersonalFolders/Calvin/HAb_Converged/rxn_1255/output/Species/rxn_1255_C=CC=S/rxn_1255_C=CC=S.yml

>  <frequencies_cm1>  (2) 
[143.52686017332, 284.27945827736, 458.62534856684, 626.85962192152, 901.60770457472, 915.3554091853599, 995.0811087505599, 1035.17743603404, 1098.5734445082799, 1194.99965237172, 1299.26109048528, 1341.3969124088, 1455.1759921758799, 1675.0087932250397, 3064.563873683, 3123.0293866974803, 3158.3600261688803, 3216.07703778348]

>  <ZPE_kJmol>  (2) 
155.4365784144883

>  <E_elec_kJmol>  (2) 
-1351818.4401839648

>  <E0_minus_Eelec_plus_ZPE_kJmol>  (2) 
0.0

>  <rxn>  (2) 
rxn_1255

>  <species_type>  (2) 
p0

>  <species_folder>  (2) 
rxn_1255_C=CC=S

>  <frequencies_cm1_list>  (2) 
[143.52686017332, 284.27945827736, 458.62534856684, 626.85962192152, 901.60770457472, 915.3554091853599, 995.0811087505599, 1035.17743603404, 1098.5734445082799, 1194.99965237172, 1299.26109048528, 1341.3969124088, 1455.1759921758799, 1675.0087932250397, 3064.563873683, 3123.0293866974803, 3158.3600261688803, 3216.07703778348]

>  <E0_kJmol>  (2) 
-1.35166e+06

>  <H298_kJmol>  (2) 
-1.35165e+06

$$$$

     RDKit          3D

 14 12  0  0  0  0  0  0  0  0999 V2000
    0.2259   -2.1600   -2.7872 C   0  0  0  0  0  0  0  0  0  1  0  0
   -0.0730   -2.0572   -1.6256 C   0  0  0  0  0  0  0  0  0  2  0  0
   -0.4048   -1.8606   -0.2603 C   0  0  0  0  0  3  0  0  0  3  0  0
    0.4870   -2.2818   -3.8107 H   0  0  0  0  0  0  0  0  0  4  0  0
   -0.0319   -0.6111    0.1350 H   0  0  0  0  0  0  0  0  0  5  0  0
    0.1768   -2.4468    0.4479 H   0  0  0  0  0  0  0  0  0  6  0  0
   -1.4698   -1.8675   -0.0401 H   0  0  0  0  0  0  0  0  0  7  0  0
   -0.2048    1.5270   -1.4785 C   0  0  0  0  0  0  0  0  0  8  0  0
    0.1719    1.6818   -0.2092 C   0  0  0  0  0  0  0  0  0  9  0  0
    0.3232    0.5635    0.6931 C   0  0  0  0  0  0  0  0  0 10  0  0
    0.8164    0.5210    2.2035 S   0  0  0  0  0  0  0  0  0 11  0  0
   -0.3053    2.3819   -2.1353 H   0  0  0  0  0  0  0  0  0 12  0  0
   -0.4083    0.5492   -1.8981 H   0  0  0  0  0  0  0  0  0 13  0  0
    0.3868    2.6687    0.1910 H   0  0  0  0  0  0  0  0  0 14  0  0
  1  4  1  0
  1  2  1  0
  2  3  1  0
  3  6  1  0
  3  7  1  0
  5 10  1  0
  8  9  1  0
  8 13  1  0
  8 12  1  0
  9 10  1  0
  9 14  1  0
 10 11  1  0
M  RAD  1   3   2
M  END
>  <rmg_smiles>  (3) 
[CH2][CH][CH][S].[CH][C][CH2]

>  <rmg_adjacency_list>  (3) 
multiplicity 2
1  S u0 p2 c0 {4,S}
2  C u0 p0 c0 {3,S} {4,S} {8,S}
3  C u0 p0 c0 {2,S} {10,S} {11,S}
4  C u0 p0 c0 {1,S} {2,S} {9,S}
5  C u1 p0 c0 {6,S} {12,S} {13,S}
6  C u0 p1 c0 {5,S} {7,S}
7  C u0 p1 c0 {6,S} {14,S}
8  H u0 p0 c0 {2,S}
9  H u0 p0 c0 {4,S}
10 H u0 p0 c0 {3,S}
11 H u0 p0 c0 {3,S}
12 H u0 p0 c0 {5,S}
13 H u0 p0 c0 {5,S}
14 H u0 p0 c0 {7,S}


>  <multiplicity>  (3) 
2

>  <reaction>  (3) 
rxn_1255

>  <type>  (3) 
ts

>  <role_mapnums>  (3) 
{"*2": 5, "*1": 3, "*3": 10, "*0": 11, "*4": 2}

>  <role_mapidx>  (3) 
{"*2": 4, "*1": 2, "*3": 9, "*0": 10, "*4": 1}

>  <ordered_mapped_smiles>  (3) 
[CH2:1]([CH2:2][C:3]([H:6])[H:7])[H:4].[H:5][CH:10]([CH:9]([CH:8]([H:12])[H:13])[H:14])[SH:11]

>  <mol_properties>  (3) 
{"1": {"label": "*4", "atom_type": "C2s"}, "2": {"label": "*1", "atom_type": "Cs"}, "4": {"label": "*2", "atom_type": "H0"}, "9": {"label": "*3", "atom_type": "Cs"}, "10": {"label": "*0", "atom_type": "S2s"}}

>  <level_of_theory>  (3) 
wb97xd/def2tzvp

>  <lot_method>  (3) 
wb97xd

>  <lot_basis>  (3) 
def2tzvp

>  <spin_multiplicity>  (3) 
2.0

>  <optical_isomers>  (3) 
2.0

>  <modes>  (3) 
IdealGasTranslation(mass=(111.027, 'amu')),         NonlinearRotor(             inertia = ([169.942, 451.493, 596.972

>  <frequency_value>  (3) 
-1844.67

>  <frequency_units>  (3) 
cm^-1

>  <frequency_list>  (3) 
unknown

>  <arkane_path>  (3) 
/home/calvin/Dropbox/PersonalFolders/Calvin/HAb_Converged/rxn_1255/output/rxns/TS0/arkane/output.py

>  <path_exists>  (3) 
True

>  <E0_value>  (3) 
-1656050.0

>  <E0_units>  (3) 
kJ/mol

>  <thermo_class>  (3) 
unknown

>  <Cp0_value>  (3) 
unknown

>  <Cp0_units>  (3) 
unknown

>  <CpInf_value>  (3) 
unknown

>  <CpInf_units>  (3) 
unknown

>  <Tmin_value>  (3) 
unknown

>  <Tmin_units>  (3) 
unknown

>  <Tmax_value>  (3) 
unknown

>  <Tmax_units>  (3) 
unknown

>  <polynomials>  (3) 
unknown

>  <H298_value>  (3) 
unknown

>  <H298_units>  (3) 
unknown

>  <S298_value>  (3) 
unknown

>  <S298_units>  (3) 
unknown

>  <Cp_T_value_list>  (3) 
unknown

>  <Cp_T_units>  (3) 
unknown

>  <T_list>  (3) 
unknown

>  <T_units>  (3) 
unknown

>  <yaml_path>  (3) 
unknown

>  <frequencies_cm1>  (3) 
unknown

>  <ZPE_kJmol>  (3) 
unknown

>  <E_elec_kJmol>  (3) 
unknown

>  <E0_minus_Eelec_plus_ZPE_kJmol>  (3) 
unknown

>  <rxn>  (3) 
unknown

>  <species_type>  (3) 
unknown

>  <species_folder>  (3) 
unknown

>  <frequencies_cm1_list>  (3) 
[]

>  <ts_imag_freq_cm1>  (3) 
-1867.0734

>  <ts_freq_out_path>  (3) 
/home/calvin/Dropbox/PersonalFolders/Calvin/HAb_Converged/rxn_1255/output/rxns/TS0/geometry/freq.out

>  <E0_kJmol>  (3) 
-1.65605e+06

>  <H298_kJmol>  (3) 
unknown

$$$$

     RDKit          3D

  6  5  0  0  0  0  0  0  0  0999 V2000
    1.4968   -0.0097    0.1113 C   0  0  0  0  0  0  0  0  0  1  0  0
    0.2829   -0.0018    0.0210 C   0  0  0  0  0  0  0  0  0  2  0  0
   -1.0795    0.0070   -0.0803 C   0  0  0  0  0  3  0  0  0  3  0  0
    2.5571   -0.0165    0.1902 H   0  0  0  0  0  0  0  0  0  4  0  0
   -1.6181    0.9389   -0.1832 H   0  0  0  0  0  0  0  0  0  5  0  0
   -1.6393   -0.9179   -0.0591 H   0  0  0  0  0  0  0  0  0  6  0  0
  1  4  1  0
  1  2  1  0
  2  3  1  0
  3  6  1  0
  3  5  1  0
M  RAD  1   3   2
M  END
>  <rmg_smiles>  (4) 
[CH]C[CH2]

>  <rmg_adjacency_list>  (4) 
multiplicity 2
1 C u1 p0 c0 {2,S} {4,S} {5,S}
2 C u0 p1 c0 {1,S} {3,S}
3 C u0 p1 c0 {2,S} {6,S}
4 H u0 p0 c0 {1,S}
5 H u0 p0 c0 {1,S}
6 H u0 p0 c0 {3,S}


>  <multiplicity>  (4) 
2

>  <reaction>  (4) 
rxn_1255

>  <type>  (4) 
r1

>  <role_mapnums>  (4) 
{}

>  <role_mapidx>  (4) 
{}

>  <ordered_mapped_smiles>  (4) 
[CH2:1]([CH2:2][C:3]([H:5])[H:6])[H:4]

>  <level_of_theory>  (4) 
wb97xd/def2tzvp

>  <lot_method>  (4) 
wb97xd

>  <lot_basis>  (4) 
def2tzvp

>  <spin_multiplicity>  (4) 
2.0

>  <optical_isomers>  (4) 
1.0

>  <modes>  (4) 
IdealGasTranslation(mass=(39.0235, 'amu')),         NonlinearRotor(             inertia = ([1.74527, 52.5377, 54.2829

>  <frequency_value>  (4) 
unknown

>  <frequency_units>  (4) 
unknown

>  <frequency_list>  (4) 
unknown

>  <arkane_path>  (4) 
/home/calvin/Dropbox/PersonalFolders/Calvin/HAb_Converged/rxn_1255/output/Species/rxn_1255_CtC[CH2]/arkane/output.py

>  <path_exists>  (4) 
True

>  <E0_value>  (4) 
-304448.46556643327

>  <E0_units>  (4) 
kJ/mol

>  <thermo_class>  (4) 
NASA

>  <Cp0_value>  (4) 
33.257888

>  <Cp0_units>  (4) 
J/(mol*K)

>  <CpInf_value>  (4) 
133.031552

>  <CpInf_units>  (4) 
J/(mol*K)

>  <Tmin_value>  (4) 
10.0

>  <Tmin_units>  (4) 
K

>  <Tmax_value>  (4) 
3000.0

>  <Tmax_units>  (4) 
K

>  <polynomials>  (4) 
[{"name": "polynomial1", "class": "NASAPolynomial", "Tmin_value": 10.0, "Tmin_units": "K", "Tmax_value": 545.4322858033976, "Tmax_units": "K", "coeffs": [3.9499603218219184, 0.003017565134064686, 5.5663880593738125e-05, -1.145891938777454e-07, 7.087527216200762e-11, -36616690.41912999, 5.464661756584002]}, {"name": "polynomial2", "class": "NASAPolynomial", "Tmin_value": 545.4322858033976, "Tmin_units": "K", "Tmax_value": 3000.0, "Tmax_units": "K", "coeffs": [3.789373911177466, 0.015460066047789113, -9.533910331026645e-06, 2.9656464623318287e-09, -3.6191150968379614e-13, -36616840.46347278, 4.606005615672744]}]

>  <H298_value>  (4) 
-72761.72685205255

>  <H298_units>  (4) 
kcal/mol

>  <S298_value>  (4) 
60.54560432912815

>  <S298_units>  (4) 
cal/(mol*K)

>  <Cp_T_value_list>  (4) 
[14.596350865656005, 16.978505208172123, 18.840244425047544, 20.322925848209742, 22.70561515204646, 24.480922661541676, 27.23477345925829, 28.831290583038445, 29.744408163505042]

>  <Cp_T_units>  (4) 
cal/(mol*K)

>  <T_list>  (4) 
[300.0, 400.0, 500.0, 600.0, 800.0, 1000.0, 1500.0, 2000.0, 2400.0]

>  <T_units>  (4) 
K

>  <yaml_path>  (4) 
/home/calvin/Dropbox/PersonalFolders/Calvin/HAb_Converged/rxn_1255/output/Species/rxn_1255_CtC[CH2]/rxn_1255_CtCCH2.yml

>  <frequencies_cm1>  (4) 
[355.94331707688, 407.51437683008004, 504.51054447508, 653.44172209524, 683.5053838262, 1024.2589293752399, 1075.37676809732, 1445.76135530216, 1997.3313501752, 3133.58394313432, 3230.4359040876, 3427.03082681388]

>  <ZPE_kJmol>  (4) 
107.29725110288972

>  <E_elec_kJmol>  (4) 
-304555.76281753613

>  <E0_minus_Eelec_plus_ZPE_kJmol>  (4) 
0.0

>  <rxn>  (4) 
rxn_1255

>  <species_type>  (4) 
p1

>  <species_folder>  (4) 
rxn_1255_CtC[CH2]

>  <frequencies_cm1_list>  (4) 
[355.94331707688, 407.51437683008004, 504.51054447508, 653.44172209524, 683.5053838262, 1024.2589293752399, 1075.37676809732, 1445.76135530216, 1997.3313501752, 3133.58394313432, 3230.4359040876, 3427.03082681388]

>  <E0_kJmol>  (4) 
-304448

>  <H298_kJmol>  (4) 
-304435

$$$$

     RDKit          3D

  7  6  0  0  0  0  0  0  0  0999 V2000
   -0.6904   -0.9066   -0.0346 C   0  0  0  0  0  0  0  0  0  1  0  0
    0.1413    0.0254   -0.6161 C   0  0  0  0  0  0  0  0  0  2  0  0
    0.4603    0.1105   -1.9267 C   0  0  0  0  0  3  0  0  0  3  0  0
    0.8318    0.2180   -3.4201 S   0  0  0  0  0  0  0  0  0  4  0  0
   -0.8731   -0.8770    1.0287 H   0  0  0  0  0  0  0  0  0  5  0  0
   -1.1718   -1.6767   -0.6199 H   0  0  0  0  0  0  0  0  0  6  0  0
    0.6090    0.7866    0.0044 H   0  0  0  0  0  0  0  0  0  7  0  0
  1  5  1  0
  1  6  1  0
  1  2  1  0
  2  7  1  0
  2  3  1  0
  3  4  1  0
M  RAD  1   3   2
M  END
>  <rmg_smiles>  (5) 
[CH2][CH][C][S]

>  <rmg_adjacency_list>  (5) 
multiplicity 2
1 S u0 p2 c0 {4,S}
2 C u0 p0 c0 {3,S} {4,S} {5,S}
3 C u0 p0 c0 {2,S} {6,S} {7,S}
4 C u1 p1 c0 {1,S} {2,S}
5 H u0 p0 c0 {2,S}
6 H u0 p0 c0 {3,S}
7 H u0 p0 c0 {3,S}


>  <multiplicity>  (5) 
2

>  <reaction>  (5) 
rxn_1255

>  <type>  (5) 
r2

>  <role_mapnums>  (5) 
{}

>  <role_mapidx>  (5) 
{}

>  <ordered_mapped_smiles>  (5) 
[CH:1]([CH:2]([CH:3][SH:4])[H:7])([H:5])[H:6]

>  <level_of_theory>  (5) 
wb97xd/def2tzvp

>  <lot_method>  (5) 
wb97xd

>  <lot_basis>  (5) 
def2tzvp

>  <spin_multiplicity>  (5) 
2.0

>  <optical_isomers>  (5) 
1.0

>  <modes>  (5) 
IdealGasTranslation(mass=(70.9955, 'amu')),         NonlinearRotor(             inertia = ([10.5411, 179.005, 189.545

>  <frequency_value>  (5) 
unknown

>  <frequency_units>  (5) 
unknown

>  <frequency_list>  (5) 
unknown

>  <arkane_path>  (5) 
/home/calvin/Dropbox/PersonalFolders/Calvin/HAb_Converged/rxn_1255/output/Species/rxn_1255_C=C[C]=S/arkane/output.py

>  <path_exists>  (5) 
True

>  <E0_value>  (5) 
-1349993.0265723662

>  <E0_units>  (5) 
kJ/mol

>  <thermo_class>  (5) 
NASA

>  <Cp0_value>  (5) 
33.257888

>  <Cp0_units>  (5) 
J/(mol*K)

>  <CpInf_value>  (5) 
157.97496800000002

>  <CpInf_units>  (5) 
J/(mol*K)

>  <Tmin_value>  (5) 
10.0

>  <Tmin_units>  (5) 
K

>  <Tmax_value>  (5) 
3000.0

>  <Tmax_units>  (5) 
K

>  <polynomials>  (5) 
[{"name": "polynomial1", "class": "NASAPolynomial", "Tmin_value": 10.0, "Tmin_units": "K", "Tmax_value": 482.1301665802275, "Tmax_units": "K", "coeffs": [3.9339607670145957, 0.004302096978520193, 8.035838855252611e-05, -1.8150147447629097e-07, 1.2462580155687268e-10, -162366655.6604501, 9.642320969940064]}, {"name": "polynomial2", "class": "NASAPolynomial", "Tmin_value": 482.1301665802275, "Tmin_units": "K", "Tmax_value": 3000.0, "Tmax_units": "K", "coeffs": [3.400427758770762, 0.021645224311717642, -1.37856590531485e-05, 4.244047020172045e-09, -5.028191493369426e-13, -162366754.33756855, 10.270196831946016]}]

>  <H298_value>  (5) 
-322652.55047265504

>  <H298_units>  (5) 
kcal/mol

>  <S298_value>  (5) 
70.64361213735101

>  <S298_units>  (5) 
cal/(mol*K)

>  <Cp_T_value_list>  (5) 
[17.02196180246356, 20.04389454321789, 22.40715394507206, 24.39549126437832, 27.544237618727635, 29.810523671258657, 33.04459736313007, 34.68770283344468, 35.63248721043395]

>  <Cp_T_units>  (5) 
cal/(mol*K)

>  <T_list>  (5) 
[300.0, 400.0, 500.0, 600.0, 800.0, 1000.0, 1500.0, 2000.0, 2400.0]

>  <T_units>  (5) 
K

>  <yaml_path>  (5) 
/home/calvin/Dropbox/PersonalFolders/Calvin/HAb_Converged/rxn_1255/output/Species/rxn_1255_C=C[C]=S/rxn_1255_C=CC=S.yml

>  <frequencies_cm1>  (5) 
[184.57083143095997, 214.92290654536, 515.6487946641199, 562.7082450620801, 730.0017414279199, 762.2216365493599, 843.0666547217199, 1034.47013654608, 1198.8726320921999, 1337.5170657029998, 1487.49889207712, 1626.2463304677199, 3117.87914770748, 3147.4895884073203, 3250.46690026604]

>  <ZPE_kJmol>  (5) 
119.7078354553374

>  <E_elec_kJmol>  (5) 
-1350112.7344078217

>  <E0_minus_Eelec_plus_ZPE_kJmol>  (5) 
0.0

>  <rxn>  (5) 
rxn_1255

>  <species_type>  (5) 
r1

>  <species_folder>  (5) 
rxn_1255_C=C[C]=S

>  <frequencies_cm1_list>  (5) 
[184.57083143095997, 214.92290654536, 515.6487946641199, 562.7082450620801, 730.0017414279199, 762.2216365493599, 843.0666547217199, 1034.47013654608, 1198.8726320921999, 1337.5170657029998, 1487.49889207712, 1626.2463304677199, 3117.87914770748, 3147.4895884073203, 3250.46690026604]

>  <E0_kJmol>  (5) 
-1.34999e+06

>  <H298_kJmol>  (5) 
-1.34998e+06

$$$$
