
     RDKit          3D

  5  4  0  0  0  0  0  0  0  0999 V2000
   -0.0010   -0.0440   -0.0118 C   0  0  0  0  0  0  0  0  0  1  0  0
    0.0352    1.0006    0.2781 H   0  0  0  0  0  0  0  0  0  2  0  0
    0.8367   -0.4857    0.5168 H   0  0  0  0  0  0  0  0  0  3  0  0
   -0.9816   -0.3487    0.3376 H   0  0  0  0  0  0  0  0  0  4  0  0
    0.1097    0.0054   -1.0896 H   0  0  0  0  0  0  0  0  0  5  0  0
  1  3  1  0
  1  5  1  0
  1  4  1  0
  1  2  1  0
M  END
>  <rmg_smiles>  (1) 
C

>  <rmg_adjacency_list>  (1) 
1 C u0 p0 c0 {2,S} {3,S} {4,S} {5,S}
2 H u0 p0 c0 {1,S}
3 H u0 p0 c0 {1,S}
4 H u0 p0 c0 {1,S}
5 H u0 p0 c0 {1,S}


>  <multiplicity>  (1) 
1

>  <reaction>  (1) 
rxn_856

>  <type>  (1) 
r1h

>  <role_mapnums>  (1) 
{"r1h_a": 1, "r1h_h": 2}

>  <role_mapidx>  (1) 
{"r1h_a": 0, "r1h_h": 1}

>  <ordered_mapped_smiles>  (1) 
[C:1]([H:2])([H:3])([H:4])[H:5]

>  <mol_properties>  (1) 
{"0": {"label": "donator", "atom_type": "Cs"}, "1": {"label": "d_hydrogen", "atom_type": "H0"}}

>  <level_of_theory>  (1) 
wb97xd/def2tzvp

>  <lot_method>  (1) 
wb97xd

>  <lot_basis>  (1) 
def2tzvp

>  <spin_multiplicity>  (1) 
1.0

>  <optical_isomers>  (1) 
1.0

>  <modes>  (1) 
IdealGasTranslation(mass=(16.0313, 'amu')),         NonlinearRotor(             inertia = ([3.18679, 3.18679, 3.18679

>  <frequency_value>  (1) 
unknown

>  <frequency_units>  (1) 
unknown

>  <frequency_list>  (1) 
unknown

>  <arkane_path>  (1) 
/home/calvin/Dropbox/PersonalFolders/Calvin/HAb_Converged/rxn_856/output/Species/rxn_856_C/arkane/output.py

>  <path_exists>  (1) 
True

>  <E0_value>  (1) 
-106268.5262916272

>  <E0_units>  (1) 
kJ/mol

>  <thermo_class>  (1) 
NASA

>  <Cp0_value>  (1) 
33.257888

>  <Cp0_units>  (1) 
J/(mol*K)

>  <CpInf_value>  (1) 
108.088136

>  <CpInf_units>  (1) 
J/(mol*K)

>  <Tmin_value>  (1) 
10.0

>  <Tmin_units>  (1) 
K

>  <Tmax_value>  (1) 
3000.0

>  <Tmax_units>  (1) 
K

>  <polynomials>  (1) 
[{"name": "polynomial1", "class": "NASAPolynomial", "Tmin_value": 10.0, "Tmin_units": "K", "Tmax_value": 616.7595780986624, "Tmax_units": "K", "coeffs": [4.041420799946622, -0.002477807655966685, 1.1290457802459216e-05, 3.700688819348292e-09, -9.366412561864162e-12, -12781153.318458663, -0.42637433538586406]}, {"name": "polynomial2", "class": "NASAPolynomial", "Tmin_value": 616.7595780986624, "Tmin_units": "K", "Tmax_value": 3000.0, "Tmax_units": "K", "coeffs": [0.6800320423470843, 0.011684066325645743, -4.5749540261290126e-06, 7.694671628924811e-10, -3.8768177461555664e-14, -12780593.404419335, 15.343675764562182]}]

>  <H298_value>  (1) 
-25396.41264990868

>  <H298_units>  (1) 
kcal/mol

>  <S298_value>  (1) 
44.46392088520575

>  <S298_units>  (1) 
cal/(mol*K)

>  <Cp_T_value_list>  (1) 
[8.621039065772948, 9.645572285350525, 10.934239595808906, 12.330144838344452, 14.859142397339834, 16.9306880471269, 20.49440393107996, 22.423230884533538, 23.291918246513866]

>  <Cp_T_units>  (1) 
cal/(mol*K)

>  <T_list>  (1) 
[300.0, 400.0, 500.0, 600.0, 800.0, 1000.0, 1500.0, 2000.0, 2400.0]

>  <T_units>  (1) 
K

>  <yaml_path>  (1) 
/home/calvin/Dropbox/PersonalFolders/Calvin/HAb_Converged/rxn_856/output/Species/rxn_856_C/rxn_856_C.yml

>  <frequencies_cm1>  (1) 
[1326.5504901469599, 1326.5504901469599, 1326.5504901469599, 1542.24249904816, 1542.24249904816, 3008.8382878112, 3127.32125252248, 3127.32125252248, 3127.32125252248]

>  <ZPE_kJmol>  (1) 
116.36640738144024

>  <E_elec_kJmol>  (1) 
-106384.89269900863

>  <E0_minus_Eelec_plus_ZPE_kJmol>  (1) 
0.0

>  <rxn>  (1) 
rxn_856

>  <species_type>  (1) 
r1

>  <species_folder>  (1) 
rxn_856_C

>  <frequencies_cm1_list>  (1) 
[1326.5504901469599, 1326.5504901469599, 1326.5504901469599, 1542.24249904816, 1542.24249904816, 3008.8382878112, 3127.32125252248, 3127.32125252248, 3127.32125252248]

>  <E0_kJmol>  (1) 
-106269

>  <H298_kJmol>  (1) 
-106259

$$$$

     RDKit          3D

 13 12  0  0  0  0  0  0  0  0999 V2000
   -0.0551   -0.5771    1.6005 C   0  0  0  0  0  0  0  0  0  1  0  0
   -0.0618   -0.4614    0.0941 C   0  0  0  0  0  0  0  0  0  2  0  0
   -1.2131    0.2243   -0.5279 C   0  0  0  0  0  0  0  0  0  3  0  0
   -2.2733    0.7041    0.1148 C   0  0  0  0  0  0  0  0  0  4  0  0
    1.5235    0.0411   -0.6233 S   0  0  0  0  0  0  0  0  0  5  0  0
    0.0088    0.4080    2.0708 H   0  0  0  0  0  0  0  0  0  6  0  0
   -0.9672   -1.0640    1.9533 H   0  0  0  0  0  0  0  0  0  7  0  0
    0.7999   -1.1650    1.9315 H   0  0  0  0  0  0  0  0  0  8  0  0
   -1.1621    0.3160   -1.6085 H   0  0  0  0  0  0  0  0  0  9  0  0
   -3.0813    1.1783   -0.4271 H   0  0  0  0  0  0  0  0  0 10  0  0
   -2.3719    0.6505    1.1920 H   0  0  0  0  0  0  0  0  0 11  0  0
    1.4577    1.3357   -0.2763 H   0  0  0  0  0  0  0  0  0 12  0  0
   -0.1059   -1.4899   -0.2640 H   0  0  0  0  0  0  0  0  0 13  0  0
  1  8  1  0
  1  7  1  0
  1  6  1  0
  1  2  1  0
  2 13  1  0
  2  5  1  0
  2  3  1  0
  3  4  1  0
  3  9  1  0
  4 10  1  0
  4 11  1  0
  5 12  1  0
M  END
>  <rmg_smiles>  (2) 
[CH2][CH]C(S)C

>  <rmg_adjacency_list>  (2) 
1  S u0 p2 c0 {2,S} {13,S}
2  C u0 p0 c0 {1,S} {3,S} {4,S} {6,S}
3  C u0 p0 c0 {2,S} {7,S} {8,S} {9,S}
4  C u0 p0 c0 {2,S} {5,S} {10,S}
5  C u0 p0 c0 {4,S} {11,S} {12,S}
6  H u0 p0 c0 {2,S}
7  H u0 p0 c0 {3,S}
8  H u0 p0 c0 {3,S}
9  H u0 p0 c0 {3,S}
10 H u0 p0 c0 {4,S}
11 H u0 p0 c0 {5,S}
12 H u0 p0 c0 {5,S}
13 H u0 p0 c0 {1,S}


>  <multiplicity>  (2) 
1

>  <reaction>  (2) 
rxn_856

>  <type>  (2) 
r2h

>  <role_mapnums>  (2) 
{"r2h_a": 2, "r2h_h": 13}

>  <role_mapidx>  (2) 
{"r2h_a": 1, "r2h_h": 12}

>  <ordered_mapped_smiles>  (2) 
[C:1]([C:2]([CH:3]([CH:4]([H:10])[H:11])[H:9])([S:5][H:12])[H:13])([H:6])([H:7])[H:8]

>  <mol_properties>  (2) 
{"1": {"label": "acceptor", "atom_type": "Cs"}, "12": {"label": "a_hydrogen", "atom_type": "H0"}}

>  <level_of_theory>  (2) 
wb97xd/def2tzvp

>  <lot_method>  (2) 
wb97xd

>  <lot_basis>  (2) 
def2tzvp

>  <spin_multiplicity>  (2) 
1.0

>  <optical_isomers>  (2) 
2.0

>  <modes>  (2) 
IdealGasTranslation(mass=(88.0347, 'amu')),         NonlinearRotor(             inertia = ([80.9896, 186.939, 240.36

>  <frequency_value>  (2) 
unknown

>  <frequency_units>  (2) 
unknown

>  <frequency_list>  (2) 
unknown

>  <arkane_path>  (2) 
/home/calvin/Dropbox/PersonalFolders/Calvin/HAb_Converged/rxn_856/output/Species/rxn_856_CC[C=C]S/arkane/output.py

>  <path_exists>  (2) 
True

>  <E0_value>  (2) 
-1457993.219803836

>  <E0_units>  (2) 
kJ/mol

>  <thermo_class>  (2) 
NASA

>  <Cp0_value>  (2) 
33.257888

>  <Cp0_units>  (2) 
J/(mol*K)

>  <CpInf_value>  (2) 
307.635464

>  <CpInf_units>  (2) 
J/(mol*K)

>  <Tmin_value>  (2) 
10.0

>  <Tmin_units>  (2) 
K

>  <Tmax_value>  (2) 
3000.0

>  <Tmax_units>  (2) 
K

>  <polynomials>  (2) 
[{"name": "polynomial1", "class": "NASAPolynomial", "Tmin_value": 10.0, "Tmin_units": "K", "Tmax_value": 295.7227912497842, "Tmax_units": "K", "coeffs": [3.859964156764265, 0.01144860889918731, 0.0001493029899500801, -3.9039348716992893e-07, 3.358044146618703e-10, -175356080.14565533, 11.069034930037732]}, {"name": "polynomial2", "class": "NASAPolynomial", "Tmin_value": 295.7227912497842, "Tmin_units": "K", "Tmax_value": 3000.0, "Tmax_units": "K", "coeffs": [1.2850875538289555, 0.046276930240981576, -2.7357704114677986e-05, 7.864783684789184e-09, -8.783951656354052e-13, -175355927.85604125, 20.354264054524194]}]

>  <H298_value>  (2) 
-348464.0450906466

>  <H298_units>  (2) 
kcal/mol

>  <S298_value>  (2) 
80.12210228638097

>  <S298_units>  (2) 
cal/(mol*K)

>  <Cp_T_value_list>  (2) 
[25.657235309186788, 31.595562401016796, 36.787812405776, 41.308907051164105, 48.616370543623205, 54.03354017598102, 62.08513628914328, 66.11849050718591, 68.25869648313012]

>  <Cp_T_units>  (2) 
cal/(mol*K)

>  <T_list>  (2) 
[300.0, 400.0, 500.0, 600.0, 800.0, 1000.0, 1500.0, 2000.0, 2400.0]

>  <T_units>  (2) 
K

>  <yaml_path>  (2) 
/home/calvin/Dropbox/PersonalFolders/Calvin/HAb_Converged/rxn_856/output/Species/rxn_856_CC[C=C]S/rxn_856_CCC=CS.yml

>  <frequencies_cm1>  (2) 
[112.52242145352, 239.03975898919998, 283.2974793766, 286.77904093384, 324.26591379572, 340.0531130464, 516.9535218749198, 611.3059001717199, 707.99305347732, 859.67102522548, 891.12181799108, 956.0216962503999, 997.40214978872, 1034.16112220668, 1059.6582386998398, 1092.5304974266799, 1167.99179910816, 1255.42912318772, 1324.7582069784398, 1338.95226563488, 1400.5765918965599, 1439.5192656462798, 1479.7323316801999, 1488.1993245797596, 1707.24242231712, 2690.2788388163995, 3016.12415923572, 3026.0744209644, 3087.1562553858, 3110.68941407744, 3126.04399325296, 3140.3273227185596, 3212.2246590189598]

>  <ZPE_kJmol>  (2) 
283.0610419775438

>  <E_elec_kJmol>  (2) 
-1458276.2808458137

>  <E0_minus_Eelec_plus_ZPE_kJmol>  (2) 
0.0

>  <rxn>  (2) 
rxn_856

>  <species_type>  (2) 
p0

>  <species_folder>  (2) 
rxn_856_CC[C=C]S

>  <frequencies_cm1_list>  (2) 
[112.52242145352, 239.03975898919998, 283.2974793766, 286.77904093384, 324.26591379572, 340.0531130464, 516.9535218749198, 611.3059001717199, 707.99305347732, 859.67102522548, 891.12181799108, 956.0216962503999, 997.40214978872, 1034.16112220668, 1059.6582386998398, 1092.5304974266799, 1167.99179910816, 1255.42912318772, 1324.7582069784398, 1338.95226563488, 1400.5765918965599, 1439.5192656462798, 1479.7323316801999, 1488.1993245797596, 1707.24242231712, 2690.2788388163995, 3016.12415923572, 3026.0744209644, 3087.1562553858, 3110.68941407744, 3126.04399325296, 3140.3273227185596, 3212.2246590189598]

>  <E0_kJmol>  (2) 
-1.45799e+06

>  <H298_kJmol>  (2) 
-1.45797e+06

$$$$

     RDKit          3D

 17 15  0  0  0  0  0  0  0  0999 V2000
   -0.0171   -0.1402    1.6856 C   0  0  0  0  0  0  0  0  0  1  0  0
   -0.0238   -0.0245    0.1792 C   0  0  0  0  0  0  0  0  0  2  0  0
   -1.1751    0.6612   -0.4428 C   0  0  0  0  0  0  0  0  0  3  0  0
   -2.2353    1.1410    0.1999 C   0  0  0  0  0  0  0  0  0  4  0  0
    1.5615    0.4780   -0.5382 S   0  0  0  0  0  0  0  0  0  5  0  0
    0.0468    0.8449    2.1559 H   0  0  0  0  0  0  0  0  0  6  0  0
   -0.9292   -0.6271    2.0384 H   0  0  0  0  0  0  0  0  0  7  0  0
    0.8379   -0.7281    2.0167 H   0  0  0  0  0  0  0  0  0  8  0  0
   -1.1241    0.7529   -1.5234 H   0  0  0  0  0  0  0  0  0  9  0  0
   -3.0433    1.6152   -0.3420 H   0  0  0  0  0  0  0  0  0 10  0  0
   -2.3339    1.0874    1.2771 H   0  0  0  0  0  0  0  0  0 11  0  0
    1.4957    1.7727   -0.1912 H   0  0  0  0  0  0  0  0  0 12  0  0
   -0.1232   -2.6120   -0.6232 C   0  0  0  0  0  3  0  0  0 13  0  0
   -0.0749   -1.2157   -0.2356 H   0  0  0  0  0  0  0  0  0 14  0  0
    0.7144   -3.0538   -0.0945 H   0  0  0  0  0  0  0  0  0 15  0  0
   -1.1038   -2.9168   -0.2738 H   0  0  0  0  0  0  0  0  0 16  0  0
   -0.0125   -2.5627   -1.7010 H   0  0  0  0  0  0  0  0  0 17  0  0
  1  8  1  0
  1  7  1  0
  1  6  1  0
  1  2  1  0
  2 14  1  0
  2  5  1  0
  2  3  1  0
  3  4  1  0
  3  9  1  0
  4 10  1  0
  4 11  1  0
  5 12  1  0
 13 17  1  0
 13 16  1  0
 13 15  1  0
M  RAD  1  13   2
M  END
>  <rmg_smiles>  (3) 
[CH2][CH]C(S)C.[CH3]

>  <rmg_adjacency_list>  (3) 
multiplicity 2
1  S u0 p2 c0 {2,S} {17,S}
2  C u0 p0 c0 {1,S} {3,S} {4,S} {7,S}
3  C u0 p0 c0 {2,S} {8,S} {9,S} {10,S}
4  C u0 p0 c0 {2,S} {5,S} {11,S}
5  C u0 p0 c0 {4,S} {12,S} {13,S}
6  C u1 p0 c0 {14,S} {15,S} {16,S}
7  H u0 p0 c0 {2,S}
8  H u0 p0 c0 {3,S}
9  H u0 p0 c0 {3,S}
10 H u0 p0 c0 {3,S}
11 H u0 p0 c0 {4,S}
12 H u0 p0 c0 {5,S}
13 H u0 p0 c0 {5,S}
14 H u0 p0 c0 {6,S}
15 H u0 p0 c0 {6,S}
16 H u0 p0 c0 {6,S}
17 H u0 p0 c0 {1,S}


>  <multiplicity>  (3) 
2

>  <reaction>  (3) 
rxn_856

>  <type>  (3) 
ts

>  <role_mapnums>  (3) 
{"*2": 14, "*1": 13, "*3": 2, "*0": 5, "*4": 15}

>  <role_mapidx>  (3) 
{"*2": 13, "*1": 12, "*3": 1, "*0": 4, "*4": 14}

>  <ordered_mapped_smiles>  (3) 
[C:1]([C:2]([CH:3]([CH:4]([H:10])[H:11])[H:9])([S:5][H:12])[H:14])([H:6])([H:7])[H:8].[C:13]([H:15])([H:16])[H:17]

>  <mol_properties>  (3) 
{"1": {"label": "*3", "atom_type": "Cs"}, "4": {"label": "*0", "atom_type": "S2s"}, "12": {"label": "*1", "atom_type": "Cs"}, "13": {"label": "*2", "atom_type": "H0"}, "14": {"label": "*4", "atom_type": "H0"}}

>  <level_of_theory>  (3) 
wb97xd/def2tzvp

>  <lot_method>  (3) 
wb97xd

>  <lot_basis>  (3) 
def2tzvp

>  <spin_multiplicity>  (3) 
2.0

>  <optical_isomers>  (3) 
2.0

>  <modes>  (3) 
IdealGasTranslation(mass=(103.058, 'amu')),         NonlinearRotor(             inertia = ([202.879, 254.982, 328.653

>  <frequency_value>  (3) 
-1545.55

>  <frequency_units>  (3) 
cm^-1

>  <frequency_list>  (3) 
unknown

>  <arkane_path>  (3) 
/home/calvin/Dropbox/PersonalFolders/Calvin/HAb_Converged/rxn_856/output/rxns/TS0/arkane/output.py

>  <path_exists>  (3) 
True

>  <E0_value>  (3) 
-1562480.0

>  <E0_units>  (3) 
kJ/mol

>  <thermo_class>  (3) 
unknown

>  <Cp0_value>  (3) 
unknown

>  <Cp0_units>  (3) 
unknown

>  <CpInf_value>  (3) 
unknown

>  <CpInf_units>  (3) 
unknown

>  <Tmin_value>  (3) 
unknown

>  <Tmin_units>  (3) 
unknown

>  <Tmax_value>  (3) 
unknown

>  <Tmax_units>  (3) 
unknown

>  <polynomials>  (3) 
unknown

>  <H298_value>  (3) 
unknown

>  <H298_units>  (3) 
unknown

>  <S298_value>  (3) 
unknown

>  <S298_units>  (3) 
unknown

>  <Cp_T_value_list>  (3) 
unknown

>  <Cp_T_units>  (3) 
unknown

>  <T_list>  (3) 
unknown

>  <T_units>  (3) 
unknown

>  <yaml_path>  (3) 
unknown

>  <frequencies_cm1>  (3) 
unknown

>  <ZPE_kJmol>  (3) 
unknown

>  <E_elec_kJmol>  (3) 
unknown

>  <E0_minus_Eelec_plus_ZPE_kJmol>  (3) 
unknown

>  <rxn>  (3) 
unknown

>  <species_type>  (3) 
unknown

>  <species_folder>  (3) 
unknown

>  <frequencies_cm1_list>  (3) 
[]

>  <ts_imag_freq_cm1>  (3) 
-1564.3182

>  <ts_freq_out_path>  (3) 
/home/calvin/Dropbox/PersonalFolders/Calvin/HAb_Converged/rxn_856/output/rxns/TS0/geometry/freq.out

>  <E0_kJmol>  (3) 
-1.56248e+06

>  <H298_kJmol>  (3) 
unknown

$$$$

     RDKit          3D

  4  3  0  0  0  0  0  0  0  0999 V2000
    0.0000    0.0000    0.0000 C   0  0  0  0  0  3  0  0  0  1  0  0
    1.0638   -0.1747    0.0540 H   0  0  0  0  0  0  0  0  0  2  0  0
   -0.6833   -0.8351   -0.0280 H   0  0  0  0  0  0  0  0  0  3  0  0
   -0.3805    1.0098   -0.0260 H   0  0  0  0  0  0  0  0  0  4  0  0
  1  3  1  0
  1  4  1  0
  1  2  1  0
M  RAD  1   1   2
M  END
>  <rmg_smiles>  (4) 
[CH3]

>  <rmg_adjacency_list>  (4) 
multiplicity 2
1 C u1 p0 c0 {2,S} {3,S} {4,S}
2 H u0 p0 c0 {1,S}
3 H u0 p0 c0 {1,S}
4 H u0 p0 c0 {1,S}


>  <multiplicity>  (4) 
2

>  <reaction>  (4) 
rxn_856

>  <type>  (4) 
r1

>  <role_mapnums>  (4) 
{}

>  <role_mapidx>  (4) 
{}

>  <ordered_mapped_smiles>  (4) 
[C:1]([H:2])([H:3])[H:4]

>  <level_of_theory>  (4) 
wb97xd/def2tzvp

>  <lot_method>  (4) 
wb97xd

>  <lot_basis>  (4) 
def2tzvp

>  <spin_multiplicity>  (4) 
2.0

>  <optical_isomers>  (4) 
1.0

>  <modes>  (4) 
IdealGasTranslation(mass=(15.0235, 'amu')),         NonlinearRotor(             inertia = ([1.76141, 1.76141, 3.52282

>  <frequency_value>  (4) 
unknown

>  <frequency_units>  (4) 
unknown

>  <frequency_list>  (4) 
unknown

>  <arkane_path>  (4) 
/home/calvin/Dropbox/PersonalFolders/Calvin/HAb_Converged/rxn_856/output/Species/rxn_856_[CH3]/arkane/output.py

>  <path_exists>  (4) 
True

>  <E0_value>  (4) 
-104520.13119505512

>  <E0_units>  (4) 
kJ/mol

>  <thermo_class>  (4) 
NASA

>  <Cp0_value>  (4) 
33.257888

>  <Cp0_units>  (4) 
J/(mol*K)

>  <CpInf_value>  (4) 
83.14472

>  <CpInf_units>  (4) 
J/(mol*K)

>  <Tmin_value>  (4) 
10.0

>  <Tmin_units>  (4) 
K

>  <Tmax_value>  (4) 
3000.0

>  <Tmax_units>  (4) 
K

>  <polynomials>  (4) 
[{"name": "polynomial1", "class": "NASAPolynomial", "Tmin_value": 10.0, "Tmin_units": "K", "Tmax_value": 646.6680568167106, "Tmax_units": "K", "coeffs": [3.9912271000461548, 0.0004274218009639198, 9.38132315134313e-06, -1.0944874554220949e-08, 4.263406085556096e-12, -12570867.748368958, 0.20527673099681187]}, {"name": "polynomial2", "class": "NASAPolynomial", "Tmin_value": 646.6680568167106, "Tmin_units": "K", "Tmax_value": 3000.0, "Tmax_units": "K", "coeffs": [3.2488827598675174, 0.0050187516265713635, -1.2675301815554908e-06, 3.215102013021586e-11, 2.0164394281080815e-14, -12570771.728238096, 3.4631324604304954]}]

>  <H298_value>  (4) 
-24978.383291331436

>  <H298_units>  (4) 
kcal/mol

>  <S298_value>  (4) 
46.49953999396709

>  <S298_units>  (4) 
cal/(mol*K)

>  <Cp_T_value_list>  (4) 
[9.345424201068383, 10.07887042200736, 10.827537754048599, 11.552428339520182, 12.871902382304132, 14.014614114932202, 16.167234911840477, 17.479674567657305, 18.096247059343543]

>  <Cp_T_units>  (4) 
cal/(mol*K)

>  <T_list>  (4) 
[300.0, 400.0, 500.0, 600.0, 800.0, 1000.0, 1500.0, 2000.0, 2400.0]

>  <T_units>  (4) 
K

>  <yaml_path>  (4) 
/home/calvin/Dropbox/PersonalFolders/Calvin/HAb_Converged/rxn_856/output/Species/rxn_856_[CH3]/rxn_856_CH3.yml

>  <frequencies_cm1>  (4) 
[520.22220688724, 1393.4280601784399, 1393.43492716376, 3088.8592677451597, 3268.6163424668, 3268.6232094521197]

>  <ZPE_kJmol>  (4) 
77.35764153782172

>  <E_elec_kJmol>  (4) 
-104597.48883659294

>  <E0_minus_Eelec_plus_ZPE_kJmol>  (4) 
0.0

>  <rxn>  (4) 
rxn_856

>  <species_type>  (4) 
p1

>  <species_folder>  (4) 
rxn_856_[CH3]

>  <frequencies_cm1_list>  (4) 
[520.22220688724, 1393.4280601784399, 1393.43492716376, 3088.8592677451597, 3268.6163424668, 3268.6232094521197]

>  <E0_kJmol>  (4) 
-104520

>  <H298_kJmol>  (4) 
-104510

$$$$

     RDKit          3D

 12 11  0  0  0  0  0  0  0  0999 V2000
   -0.9951    0.1196   -0.8321 C   0  0  0  0  0  0  0  0  0  1  0  0
   -0.3760    0.2571    0.5231 C   0  0  0  0  0  3  0  0  0  2  0  0
    0.9330   -0.1537    0.7810 C   0  0  0  0  0  0  0  0  0  3  0  0
    1.5987   -0.1880    1.9734 C   0  0  0  0  0  0  0  0  0  4  0  0
   -1.4483    0.9449    1.7152 S   0  0  0  0  0  0  0  0  0  5  0  0
   -1.9164   -0.4696   -0.7936 H   0  0  0  0  0  0  0  0  0  6  0  0
   -1.2565    1.0958   -1.2506 H   0  0  0  0  0  0  0  0  0  7  0  0
   -0.3088   -0.3780   -1.5170 H   0  0  0  0  0  0  0  0  0  8  0  0
    1.4783   -0.4898   -0.0971 H   0  0  0  0  0  0  0  0  0  9  0  0
    2.6278   -0.5153    2.0142 H   0  0  0  0  0  0  0  0  0 10  0  0
    1.1316    0.0690    2.9151 H   0  0  0  0  0  0  0  0  0 11  0  0
   -0.5306    1.3052    2.6211 H   0  0  0  0  0  0  0  0  0 12  0  0
  1  8  1  0
  1  7  1  0
  1  6  1  0
  1  2  1  0
  2  5  1  0
  2  3  1  0
  3  4  1  0
  3  9  1  0
  4 10  1  0
  4 11  1  0
  5 12  1  0
M  RAD  1   2   2
M  END
>  <rmg_smiles>  (5) 
[CH2][CH][C](S)C

>  <rmg_adjacency_list>  (5) 
multiplicity 2
1  S u0 p2 c0 {3,S} {12,S}
2  C u0 p0 c0 {3,S} {6,S} {7,S} {8,S}
3  C u1 p0 c0 {1,S} {2,S} {4,S}
4  C u0 p0 c0 {3,S} {5,S} {9,S}
5  C u0 p0 c0 {4,S} {10,S} {11,S}
6  H u0 p0 c0 {2,S}
7  H u0 p0 c0 {2,S}
8  H u0 p0 c0 {2,S}
9  H u0 p0 c0 {4,S}
10 H u0 p0 c0 {5,S}
11 H u0 p0 c0 {5,S}
12 H u0 p0 c0 {1,S}


>  <multiplicity>  (5) 
2

>  <reaction>  (5) 
rxn_856

>  <type>  (5) 
r2

>  <role_mapnums>  (5) 
{}

>  <role_mapidx>  (5) 
{}

>  <ordered_mapped_smiles>  (5) 
[C:1]([C:2]([CH:3]([CH:4]([H:10])[H:11])[H:9])[S:5][H:12])([H:6])([H:7])[H:8]

>  <level_of_theory>  (5) 
wb97xd/def2tzvp

>  <lot_method>  (5) 
wb97xd

>  <lot_basis>  (5) 
def2tzvp

>  <spin_multiplicity>  (5) 
2.0

>  <optical_isomers>  (5) 
2.0

>  <modes>  (5) 
IdealGasTranslation(mass=(87.0269, 'amu')),         NonlinearRotor(             inertia = ([99.3628, 146.633, 242.323

>  <frequency_value>  (5) 
unknown

>  <frequency_units>  (5) 
unknown

>  <frequency_list>  (5) 
unknown

>  <arkane_path>  (5) 
/home/calvin/Dropbox/PersonalFolders/Calvin/HAb_Converged/rxn_856/output/Species/rxn_856_C[C][C=C]S/arkane/output.py

>  <path_exists>  (5) 
True

>  <E0_value>  (5) 
-1456353.608765125

>  <E0_units>  (5) 
kJ/mol

>  <thermo_class>  (5) 
NASA

>  <Cp0_value>  (5) 
33.257888

>  <Cp0_units>  (5) 
J/(mol*K)

>  <CpInf_value>  (5) 
282.692048

>  <CpInf_units>  (5) 
J/(mol*K)

>  <Tmin_value>  (5) 
10.0

>  <Tmin_units>  (5) 
K

>  <Tmax_value>  (5) 
3000.0

>  <Tmax_units>  (5) 
K

>  <polynomials>  (5) 
[{"name": "polynomial1", "class": "NASAPolynomial", "Tmin_value": 10.0, "Tmin_units": "K", "Tmax_value": 205.80991427712218, "Tmax_units": "K", "coeffs": [3.8440716151485463, 0.015174752734817191, 0.00016959478629680551, -6.246323659510997e-07, 7.670877214797748e-10, -175158884.09466982, 11.74554198751139]}, {"name": "polynomial2", "class": "NASAPolynomial", "Tmin_value": 205.80991427712218, "Tmin_units": "K", "Tmax_value": 3000.0, "Tmax_units": "K", "coeffs": [2.4663335557323998, 0.041952173821737604, -2.5570291046252858e-05, 7.56538962079546e-09, -8.66016918218639e-13, -175158827.38533536, 16.214373622623416]}]

>  <H298_value>  (5) 
-348072.01766260894

>  <H298_units>  (5) 
kcal/mol

>  <S298_value>  (5) 
82.85997438116188

>  <S298_units>  (5) 
cal/(mol*K)

>  <Cp_T_value_list>  (5) 
[25.730171503702618, 31.036134336876824, 35.65325747623649, 39.653158562343805, 46.06711368365225, 50.768335011708174, 57.649692747325474, 61.11924507378844, 63.030727529768605]

>  <Cp_T_units>  (5) 
cal/(mol*K)

>  <T_list>  (5) 
[300.0, 400.0, 500.0, 600.0, 800.0, 1000.0, 1500.0, 2000.0, 2400.0]

>  <T_units>  (5) 
K

>  <yaml_path>  (5) 
/home/calvin/Dropbox/PersonalFolders/Calvin/HAb_Converged/rxn_856/output/Species/rxn_856_C[C][C=C]S/rxn_856_CCC=CS.yml

>  <frequencies_cm1>  (5) 
[98.94639147588, 151.417026306, 232.0010990362, 298.89927002364, 330.48053551031995, 349.21367146328, 522.0762929236399, 588.7821883221199, 625.9600468445999, 795.4921804247599, 896.58107132048, 946.2019072428, 949.3950554165998, 1028.4615243910798, 1048.7259980703998, 1178.03819863132, 1246.9003274202798, 1314.9315509855198, 1402.4787468301997, 1441.74416888996, 1459.15884366148, 1479.79413454808, 1527.8149628908398, 2701.01880385688, 2997.3017524735997, 3049.97839686332, 3100.25159639104, 3118.39417160648, 3137.12730755944, 3226.2539100277195]

>  <ZPE_kJmol>  (5) 
246.69290464792437

>  <E_elec_kJmol>  (5) 
-1456600.301669773

>  <E0_minus_Eelec_plus_ZPE_kJmol>  (5) 
0.0

>  <rxn>  (5) 
rxn_856

>  <species_type>  (5) 
r0

>  <species_folder>  (5) 
rxn_856_C[C][C=C]S

>  <frequencies_cm1_list>  (5) 
[98.94639147588, 151.417026306, 232.0010990362, 298.89927002364, 330.48053551031995, 349.21367146328, 522.0762929236399, 588.7821883221199, 625.9600468445999, 795.4921804247599, 896.58107132048, 946.2019072428, 949.3950554165998, 1028.4615243910798, 1048.7259980703998, 1178.03819863132, 1246.9003274202798, 1314.9315509855198, 1402.4787468301997, 1441.74416888996, 1459.15884366148, 1479.79413454808, 1527.8149628908398, 2701.01880385688, 2997.3017524735997, 3049.97839686332, 3100.25159639104, 3118.39417160648, 3137.12730755944, 3226.2539100277195]

>  <E0_kJmol>  (5) 
-1.45635e+06

>  <H298_kJmol>  (5) 
-1.45633e+06

$$$$
