
     RDKit          3D

  9  8  0  0  0  0  0  0  0  0999 V2000
   -0.3117   -1.0466   -0.6460 C   0  0  0  0  0  0  0  0  0  1  0  0
    0.3838   -0.2016    0.1258 C   0  0  0  0  0  0  0  0  0  2  0  0
   -0.0205    1.1499    0.4552 C   0  0  0  0  0  0  0  0  0  3  0  0
    0.0288   -2.0578   -0.8265 H   0  0  0  0  0  0  0  0  0  4  0  0
   -1.2333   -0.7384   -1.1275 H   0  0  0  0  0  0  0  0  0  5  0  0
    1.3017   -0.5600    0.5843 H   0  0  0  0  0  0  0  0  0  6  0  0
   -0.5726    1.1070    1.3910 H   0  0  0  0  0  0  0  0  0  7  0  0
   -0.7817    1.5881   -0.1868 H   0  0  0  0  0  0  0  0  0  8  0  0
    0.7771    1.8421    0.7121 H   0  0  0  0  0  0  0  0  0  9  0  0
  1  5  1  0
  1  4  1  0
  1  2  1  0
  2  6  1  0
  2  3  1  0
  3  8  1  0
  3  7  1  0
  3  9  1  0
M  END
>  <rmg_smiles>  (1) 
[CH2][CH]C

>  <rmg_adjacency_list>  (1) 
1 C u0 p0 c0 {2,S} {4,S} {5,S} {6,S}
2 C u0 p0 c0 {1,S} {3,S} {7,S}
3 C u0 p0 c0 {2,S} {8,S} {9,S}
4 H u0 p0 c0 {1,S}
5 H u0 p0 c0 {1,S}
6 H u0 p0 c0 {1,S}
7 H u0 p0 c0 {2,S}
8 H u0 p0 c0 {3,S}
9 H u0 p0 c0 {3,S}


>  <multiplicity>  (1) 
1

>  <reaction>  (1) 
rxn_1011

>  <type>  (1) 
r1h

>  <role_mapnums>  (1) 
{"r1h_a": 3, "r1h_h": 7}

>  <role_mapidx>  (1) 
{"r1h_a": 2, "r1h_h": 6}

>  <ordered_mapped_smiles>  (1) 
[CH:1]([CH:2]([C:3]([H:7])([H:8])[H:9])[H:6])([H:4])[H:5]

>  <mol_properties>  (1) 
{"2": {"label": "donator", "atom_type": "Cs"}, "6": {"label": "d_hydrogen", "atom_type": "H0"}}

>  <level_of_theory>  (1) 
wb97xd/def2tzvp

>  <lot_method>  (1) 
wb97xd

>  <lot_basis>  (1) 
def2tzvp

>  <spin_multiplicity>  (1) 
1.0

>  <optical_isomers>  (1) 
1.0

>  <modes>  (1) 
IdealGasTranslation(mass=(42.047, 'amu')),         NonlinearRotor(             inertia = ([10.7194, 53.9495, 61.5633

>  <frequency_value>  (1) 
unknown

>  <frequency_units>  (1) 
unknown

>  <frequency_list>  (1) 
unknown

>  <arkane_path>  (1) 
/home/calvin/Dropbox/PersonalFolders/Calvin/HAb_Converged/rxn_1011/output/Species/rxn_1011_C=CC/arkane/output.py

>  <path_exists>  (1) 
True

>  <E0_value>  (1) 
-309367.8832800635

>  <E0_units>  (1) 
kJ/mol

>  <thermo_class>  (1) 
NASA

>  <Cp0_value>  (1) 
33.257888

>  <Cp0_units>  (1) 
J/(mol*K)

>  <CpInf_value>  (1) 
207.8618

>  <CpInf_units>  (1) 
J/(mol*K)

>  <Tmin_value>  (1) 
10.0

>  <Tmin_units>  (1) 
K

>  <Tmax_value>  (1) 
3000.0

>  <Tmax_units>  (1) 
K

>  <polynomials>  (1) 
[{"name": "polynomial1", "class": "NASAPolynomial", "Tmin_value": 10.0, "Tmin_units": "K", "Tmax_value": 531.9066404514887, "Tmax_units": "K", "coeffs": [4.0204367106395305, -0.0017312814973888466, 7.469369070858841e-05, -1.103989586823944e-07, 5.357411953540602e-11, -37208361.619619094, 6.984063163619424]}, {"name": "polynomial2", "class": "NASAPolynomial", "Tmin_value": 531.9066404514887, "Tmin_units": "K", "Tmax_value": 3000.0, "Tmax_units": "K", "coeffs": [-0.30746978474152303, 0.03081497539241948, -1.7087881859194207e-05, 4.635359552359225e-09, -4.926745989402899e-13, -37207901.209693715, 25.131571818199003]}]

>  <H298_value>  (1) 
-73937.54315081466

>  <H298_units>  (1) 
kcal/mol

>  <S298_value>  (1) 
63.235428095961645

>  <S298_units>  (1) 
cal/(mol*K)

>  <Cp_T_value_list>  (1) 
[15.255114438428619, 19.0471333221202, 22.6079143488244, 25.768633340780376, 30.96022164704354, 34.89993402421754, 40.97109580318192, 44.05842766532305, 45.61775865339882]

>  <Cp_T_units>  (1) 
cal/(mol*K)

>  <T_list>  (1) 
[300.0, 400.0, 500.0, 600.0, 800.0, 1000.0, 1500.0, 2000.0, 2400.0]

>  <T_units>  (1) 
K

>  <yaml_path>  (1) 
/home/calvin/Dropbox/PersonalFolders/Calvin/HAb_Converged/rxn_1011/output/Species/rxn_1011_C=CC/rxn_1011_C=CC.yml

>  <frequencies_cm1>  (1) 
[200.92112347787997, 429.72220735495995, 590.1693193567598, 925.5460154002399, 944.49202789812, 949.7315376972799, 1024.05291981564, 1068.7501272635197, 1186.76613697304, 1322.2792252779197, 1396.37399688072, 1440.26090006084, 1466.0326959668, 1481.02332492036, 1720.5094379553598, 3007.2932161142003, 3065.80679802592, 3091.5648599612396, 3111.3280437122, 3123.2628641983597, 3201.2855514042]

>  <ZPE_kJmol>  (1) 
207.8343042708976

>  <E_elec_kJmol>  (1) 
-309575.71758433443

>  <E0_minus_Eelec_plus_ZPE_kJmol>  (1) 
0.0

>  <rxn>  (1) 
rxn_1011

>  <species_type>  (1) 
r0

>  <species_folder>  (1) 
rxn_1011_C=CC

>  <frequencies_cm1_list>  (1) 
[200.92112347787997, 429.72220735495995, 590.1693193567598, 925.5460154002399, 944.49202789812, 949.7315376972799, 1024.05291981564, 1068.7501272635197, 1186.76613697304, 1322.2792252779197, 1396.37399688072, 1440.26090006084, 1466.0326959668, 1481.02332492036, 1720.5094379553598, 3007.2932161142003, 3065.80679802592, 3091.5648599612396, 3111.3280437122, 3123.2628641983597, 3201.2855514042]

>  <E0_kJmol>  (1) 
-309368

>  <H298_kJmol>  (1) 
-309355

$$$$

     RDKit          3D

 21 21  0  0  0  0  0  0  0  0999 V2000
    2.1939    0.1713   -0.4984 H   0  0  0  0  0  0  0  0  0  1  0  0
    2.2230   -1.1684    1.0186 C   0  0  0  0  0  0  0  0  0  2  0  0
    1.6400    0.1009    0.4377 C   0  0  0  0  0  0  0  0  0  3  0  0
    2.0591    1.3463    1.1808 C   0  0  0  0  0  0  0  0  0  4  0  0
    0.2278    0.0240   -0.0126 C   0  0  0  0  0  0  0  0  0  5  0  0
   -0.7042    1.0215    0.2824 C   0  0  0  0  0  0  0  0  0  6  0  0
   -2.0092    0.9448   -0.1797 C   0  0  0  0  0  0  0  0  0  7  0  0
   -2.4159   -0.1258   -0.9588 C   0  0  0  0  0  0  0  0  0  8  0  0
   -1.5011   -1.1222   -1.2705 C   0  0  0  0  0  0  0  0  0  9  0  0
   -0.2015   -1.0488   -0.8035 C   0  0  0  0  0  0  0  0  0 10  0  0
    2.0596   -2.0316    0.3740 H   0  0  0  0  0  0  0  0  0 11  0  0
    3.3005   -1.0619    1.1618 H   0  0  0  0  0  0  0  0  0 12  0  0
    1.7743   -1.3882    1.9929 H   0  0  0  0  0  0  0  0  0 13  0  0
    1.5880    1.4026    2.1683 H   0  0  0  0  0  0  0  0  0 14  0  0
    3.1395    1.3448    1.3346 H   0  0  0  0  0  0  0  0  0 15  0  0
    1.8007    2.2544    0.6336 H   0  0  0  0  0  0  0  0  0 16  0  0
   -0.4163    1.8673    0.8926 H   0  0  0  0  0  0  0  0  0 17  0  0
   -2.7120    1.7290    0.0735 H   0  0  0  0  0  0  0  0  0 18  0  0
   -3.4341   -0.1841   -1.3216 H   0  0  0  0  0  0  0  0  0 19  0  0
   -1.8022   -1.9621   -1.8845 H   0  0  0  0  0  0  0  0  0 20  0  0
    0.5005   -1.8274   -1.0738 H   0  0  0  0  0  0  0  0  0 21  0  0
  1  3  1  0
  2 12  1  0
  2 13  1  0
  2 11  1  0
  2  3  1  0
  3  4  1  0
  3  5  1  0
  4 14  1  0
  4 16  1  0
  4 15  1  0
  5 10  1  0
  5  6  1  0
  6  7  1  0
  6 17  1  0
  7 18  1  0
  7  8  1  0
  8 19  1  0
  8  9  1  0
  9 20  1  0
  9 10  1  0
 10 21  1  0
M  END
>  <rmg_smiles>  (2) 
CC(C)C1[CH][CH][CH][CH][CH]1

>  <rmg_adjacency_list>  (2) 
1  C u0 p0 c0 {2,S} {3,S} {4,S} {10,S}
2  C u0 p0 c0 {1,S} {11,S} {12,S} {13,S}
3  C u0 p0 c0 {1,S} {14,S} {15,S} {16,S}
4  C u0 p0 c0 {1,S} {5,S} {6,S}
5  C u0 p0 c0 {4,S} {7,S} {17,S}
6  C u0 p0 c0 {4,S} {9,S} {21,S}
7  C u0 p0 c0 {5,S} {8,S} {18,S}
8  C u0 p0 c0 {7,S} {9,S} {19,S}
9  C u0 p0 c0 {6,S} {8,S} {20,S}
10 H u0 p0 c0 {1,S}
11 H u0 p0 c0 {2,S}
12 H u0 p0 c0 {2,S}
13 H u0 p0 c0 {2,S}
14 H u0 p0 c0 {3,S}
15 H u0 p0 c0 {3,S}
16 H u0 p0 c0 {3,S}
17 H u0 p0 c0 {5,S}
18 H u0 p0 c0 {7,S}
19 H u0 p0 c0 {8,S}
20 H u0 p0 c0 {9,S}
21 H u0 p0 c0 {6,S}


>  <multiplicity>  (2) 
1

>  <reaction>  (2) 
rxn_1011

>  <type>  (2) 
r2h

>  <role_mapnums>  (2) 
{"r2h_a": 3, "r2h_h": 1}

>  <role_mapidx>  (2) 
{"r2h_a": 2, "r2h_h": 0}

>  <ordered_mapped_smiles>  (2) 
[H:1][C:3]([C:2]([H:11])([H:12])[H:13])([C:4]([H:14])([H:15])[H:16])[CH:5]1[CH:6]([H:17])[CH:7]([H:18])[CH:8]([H:19])[CH:9]([H:20])[CH:10]1[H:21]

>  <mol_properties>  (2) 
{"0": {"label": "a_hydrogen", "atom_type": "H0"}, "2": {"label": "acceptor", "atom_type": "Cs"}}

>  <level_of_theory>  (2) 
wb97xd/def2tzvp

>  <lot_method>  (2) 
wb97xd

>  <lot_basis>  (2) 
def2tzvp

>  <spin_multiplicity>  (2) 
1.0

>  <optical_isomers>  (2) 
1.0

>  <modes>  (2) 
IdealGasTranslation(mass=(120.094, 'amu')),         NonlinearRotor(             inertia = ([149.32, 463.91, 504.647

>  <frequency_value>  (2) 
unknown

>  <frequency_units>  (2) 
unknown

>  <frequency_list>  (2) 
unknown

>  <arkane_path>  (2) 
/home/calvin/Dropbox/PersonalFolders/Calvin/HAb_Converged/rxn_1011/output/Species/rxn_1011_CC[C]c1ccccc1/arkane/output.py

>  <path_exists>  (2) 
True

>  <E0_value>  (2) 
-918971.9705563578

>  <E0_units>  (2) 
kJ/mol

>  <thermo_class>  (2) 
NASA

>  <Cp0_value>  (2) 
33.257888

>  <Cp0_units>  (2) 
J/(mol*K)

>  <CpInf_value>  (2) 
507.182792

>  <CpInf_units>  (2) 
J/(mol*K)

>  <Tmin_value>  (2) 
10.0

>  <Tmin_units>  (2) 
K

>  <Tmax_value>  (2) 
3000.0

>  <Tmax_units>  (2) 
K

>  <polynomials>  (2) 
[{"name": "polynomial1", "class": "NASAPolynomial", "Tmin_value": 10.0, "Tmin_units": "K", "Tmax_value": 361.89922232211296, "Tmax_units": "K", "coeffs": [3.904348622062279, 0.0066165546790882615, 0.0002808737755672962, -5.999598061578041e-07, 4.2351735797772944e-10, -110526797.72652088, 13.495734278594782]}, {"name": "polynomial2", "class": "NASAPolynomial", "Tmin_value": 361.89922232211296, "Tmin_units": "K", "Tmax_value": 3000.0, "Tmax_units": "K", "coeffs": [-3.390813709941935, 0.08724915524894813, -5.3334839935951765e-05, 1.570183761902888e-08, -1.7850302751301086e-12, -110526269.70789742, 41.275892626906796]}]

>  <H298_value>  (2) 
-219633.7064411244

>  <H298_units>  (2) 
kcal/mol

>  <S298_value>  (2) 
90.86478001259816

>  <S298_units>  (2) 
cal/(mol*K)

>  <Cp_T_value_list>  (2) 
[36.563666942497676, 47.56278372816195, 57.13460978558492, 65.41564668608144, 78.65841331539274, 88.31207084387951, 102.21497799600469, 108.94333746029595, 112.55073339579498]

>  <Cp_T_units>  (2) 
cal/(mol*K)

>  <T_list>  (2) 
[300.0, 400.0, 500.0, 600.0, 800.0, 1000.0, 1500.0, 2000.0, 2400.0]

>  <T_units>  (2) 
K

>  <yaml_path>  (2) 
/home/calvin/Dropbox/PersonalFolders/Calvin/HAb_Converged/rxn_1011/output/Species/rxn_1011_CC[C]c1ccccc1/rxn_1011_CCCc1ccccc1.yml

>  <frequencies_cm1>  (2) 
[40.364139710959996, 128.71477283808, 218.52120685304, 233.34702815891998, 266.85791652052, 308.13536527904, 321.59465650623997, 414.80711523991994, 466.94813477468, 550.3133365594799, 568.586384496, 632.73089437012, 716.65918895116, 754.681686668, 783.96251207248, 862.0195342049199, 904.8283206898, 929.47393100328, 933.9718063878798, 965.95822400844, 981.62868450868, 994.4218781598398, 1016.0460149325199, 1049.9277205014, 1069.59476645788, 1107.56919527748, 1128.8637167548, 1168.97377800892, 1175.1197298703198, 1202.8829515190798, 1234.84190119836, 1303.2851438828, 1340.7170808621202, 1342.0355420435599, 1378.7945144615198, 1391.1344870815599, 1410.5131196546, 1472.453327241, 1477.58983226036, 1484.7452309638, 1489.7306623061197, 1494.12553291092, 1530.39694937116, 1639.69188772428, 1662.05765891152, 3009.3533117101997, 3011.8528943666793, 3016.5430453402396, 3079.47209881272, 3084.9519530980792, 3090.83695951732, 3093.05499577568, 3143.16338765572, 3146.4320726680403, 3159.08105962748, 3167.4725156885197, 3180.6639944882395]

>  <ZPE_kJmol>  (2) 
482.8876988097695

>  <E_elec_kJmol>  (2) 
-919454.8582551676

>  <E0_minus_Eelec_plus_ZPE_kJmol>  (2) 
0.0

>  <rxn>  (2) 
rxn_1011

>  <species_type>  (2) 
p0

>  <species_folder>  (2) 
rxn_1011_CC[C]c1ccccc1

>  <frequencies_cm1_list>  (2) 
[40.364139710959996, 128.71477283808, 218.52120685304, 233.34702815891998, 266.85791652052, 308.13536527904, 321.59465650623997, 414.80711523991994, 466.94813477468, 550.3133365594799, 568.586384496, 632.73089437012, 716.65918895116, 754.681686668, 783.96251207248, 862.0195342049199, 904.8283206898, 929.47393100328, 933.9718063878798, 965.95822400844, 981.62868450868, 994.4218781598398, 1016.0460149325199, 1049.9277205014, 1069.59476645788, 1107.56919527748, 1128.8637167548, 1168.97377800892, 1175.1197298703198, 1202.8829515190798, 1234.84190119836, 1303.2851438828, 1340.7170808621202, 1342.0355420435599, 1378.7945144615198, 1391.1344870815599, 1410.5131196546, 1472.453327241, 1477.58983226036, 1484.7452309638, 1489.7306623061197, 1494.12553291092, 1530.39694937116, 1639.69188772428, 1662.05765891152, 3009.3533117101997, 3011.8528943666793, 3016.5430453402396, 3079.47209881272, 3084.9519530980792, 3090.83695951732, 3093.05499577568, 3143.16338765572, 3146.4320726680403, 3159.08105962748, 3167.4725156885197, 3180.6639944882395]

>  <E0_kJmol>  (2) 
-918972

>  <H298_kJmol>  (2) 
-918947

$$$$

     RDKit          3D

 29 28  0  0  0  0  0  0  0  0999 V2000
    1.9950   -1.6704   -2.3941 C   0  0  0  0  0  0  0  0  0  1  0  0
    2.6905   -0.8254   -1.6222 C   0  0  0  0  0  0  0  0  0  2  0  0
    2.2862    0.5261   -1.2929 C   0  0  0  0  0  3  0  0  0  3  0  0
    2.3355   -2.6816   -2.5745 H   0  0  0  0  0  0  0  0  0  4  0  0
    1.0733   -1.3621   -2.8756 H   0  0  0  0  0  0  0  0  0  5  0  0
    3.6083   -1.1837   -1.1637 H   0  0  0  0  0  0  0  0  0  6  0  0
    1.5998    0.4728   -0.1295 H   0  0  0  0  0  0  0  0  0  7  0  0
    1.5250    0.9643   -1.9349 H   0  0  0  0  0  0  0  0  0  8  0  0
    3.0838    1.2183   -1.0359 H   0  0  0  0  0  0  0  0  0  9  0  0
    1.5019   -0.8830    1.6020 C   0  0  0  0  0  0  0  0  0 10  0  0
    0.9189    0.3863    1.0211 C   0  0  0  0  0  0  0  0  0 11  0  0
    1.3380    1.6318    1.7642 C   0  0  0  0  0  0  0  0  0 12  0  0
   -0.4933    0.3094    0.5709 C   0  0  0  0  0  0  0  0  0 13  0  0
   -1.4253    1.3069    0.8659 C   0  0  0  0  0  0  0  0  0 14  0  0
   -2.7303    1.2302    0.4038 C   0  0  0  0  0  0  0  0  0 15  0  0
   -3.1370    0.1596   -0.3754 C   0  0  0  0  0  0  0  0  0 16  0  0
   -2.2222   -0.8368   -0.6871 C   0  0  0  0  0  0  0  0  0 17  0  0
   -0.9226   -0.7633   -0.2200 C   0  0  0  0  0  0  0  0  0 18  0  0
    1.3385   -1.7462    0.9574 H   0  0  0  0  0  0  0  0  0 19  0  0
    2.5794   -0.7765    1.7452 H   0  0  0  0  0  0  0  0  0 20  0  0
    1.0532   -1.1028    2.5763 H   0  0  0  0  0  0  0  0  0 21  0  0
    0.8669    1.6880    2.7517 H   0  0  0  0  0  0  0  0  0 22  0  0
    2.4184    1.6302    1.9180 H   0  0  0  0  0  0  0  0  0 23  0  0
    1.0796    2.5398    1.2171 H   0  0  0  0  0  0  0  0  0 24  0  0
   -1.1374    2.1527    1.4760 H   0  0  0  0  0  0  0  0  0 25  0  0
   -3.4331    2.0145    0.6570 H   0  0  0  0  0  0  0  0  0 26  0  0
   -4.1553    0.1013   -0.7381 H   0  0  0  0  0  0  0  0  0 27  0  0
   -2.5233   -1.6767   -1.3010 H   0  0  0  0  0  0  0  0  0 28  0  0
   -0.2206   -1.5420   -0.4904 H   0  0  0  0  0  0  0  0  0 29  0  0
  1  4  1  0
  1  5  1  0
  1  2  1  0
  2  6  1  0
  2  3  1  0
  3  8  1  0
  3  9  1  0
  7 11  1  0
 10 21  1  0
 10 11  1  0
 10 19  1  0
 10 20  1  0
 11 13  1  0
 11 12  1  0
 12 22  1  0
 12 24  1  0
 12 23  1  0
 13 14  1  0
 13 18  1  0
 14 15  1  0
 14 25  1  0
 15 16  1  0
 15 26  1  0
 16 17  1  0
 16 27  1  0
 17 18  1  0
 17 28  1  0
 18 29  1  0
M  RAD  1   3   2
M  END
>  <rmg_smiles>  (3) 
CC(C)C1[CH][CH][CH][CH][CH]1.[CH2][CH][CH2]

>  <rmg_adjacency_list>  (3) 
multiplicity 2
1  C u0 p0 c0 {2,S} {3,S} {4,S} {13,S}
2  C u0 p0 c0 {1,S} {14,S} {15,S} {16,S}
3  C u0 p0 c0 {1,S} {17,S} {18,S} {19,S}
4  C u0 p0 c0 {1,S} {5,S} {6,S}
5  C u0 p0 c0 {4,S} {7,S} {21,S}
6  C u0 p0 c0 {4,S} {9,S} {25,S}
7  C u0 p0 c0 {5,S} {8,S} {22,S}
8  C u0 p0 c0 {7,S} {9,S} {23,S}
9  C u0 p0 c0 {6,S} {8,S} {24,S}
10 C u0 p0 c0 {11,S} {12,S} {20,S}
11 C u1 p0 c0 {10,S} {28,S} {29,S}
12 C u0 p0 c0 {10,S} {26,S} {27,S}
13 H u0 p0 c0 {1,S}
14 H u0 p0 c0 {2,S}
15 H u0 p0 c0 {2,S}
16 H u0 p0 c0 {2,S}
17 H u0 p0 c0 {3,S}
18 H u0 p0 c0 {3,S}
19 H u0 p0 c0 {3,S}
20 H u0 p0 c0 {10,S}
21 H u0 p0 c0 {5,S}
22 H u0 p0 c0 {7,S}
23 H u0 p0 c0 {8,S}
24 H u0 p0 c0 {9,S}
25 H u0 p0 c0 {6,S}
26 H u0 p0 c0 {12,S}
27 H u0 p0 c0 {12,S}
28 H u0 p0 c0 {11,S}
29 H u0 p0 c0 {11,S}


>  <multiplicity>  (3) 
2

>  <reaction>  (3) 
rxn_1011

>  <type>  (3) 
ts

>  <role_mapnums>  (3) 
{"*2": 7, "*1": 3, "*3": 11, "*0": 13, "*4": 2}

>  <role_mapidx>  (3) 
{"*2": 6, "*1": 2, "*3": 10, "*0": 12, "*4": 1}

>  <ordered_mapped_smiles>  (3) 
[CH:1]([CH:2]([C:3]([H:8])[H:9])[H:6])([H:4])[H:5].[H:7][C:11]([C:10]([H:19])([H:20])[H:21])([C:12]([H:22])([H:23])[H:24])[CH:13]1[CH:14]([H:25])[CH:15]([H:26])[CH:16]([H:27])[CH:17]([H:28])[CH:18]1[H:29]

>  <mol_properties>  (3) 
{"1": {"label": "*4", "atom_type": "Cs"}, "2": {"label": "*1", "atom_type": "Cs"}, "6": {"label": "*2", "atom_type": "H0"}, "10": {"label": "*3", "atom_type": "Cs"}, "12": {"label": "*0", "atom_type": "Cs"}}

>  <level_of_theory>  (3) 
wb97xd/def2tzvp

>  <lot_method>  (3) 
wb97xd

>  <lot_basis>  (3) 
def2tzvp

>  <spin_multiplicity>  (3) 
2.0

>  <optical_isomers>  (3) 
2.0

>  <modes>  (3) 
IdealGasTranslation(mass=(161.133, 'amu')),         NonlinearRotor(             inertia = ([422.028, 780.062, 1017.37

>  <frequency_value>  (3) 
-1745.58

>  <frequency_units>  (3) 
cm^-1

>  <frequency_list>  (3) 
unknown

>  <arkane_path>  (3) 
/home/calvin/Dropbox/PersonalFolders/Calvin/HAb_Converged/rxn_1011/output/rxns/TS0/arkane/output.py

>  <path_exists>  (3) 
True

>  <E0_value>  (3) 
-1226600.0

>  <E0_units>  (3) 
kJ/mol

>  <thermo_class>  (3) 
unknown

>  <Cp0_value>  (3) 
unknown

>  <Cp0_units>  (3) 
unknown

>  <CpInf_value>  (3) 
unknown

>  <CpInf_units>  (3) 
unknown

>  <Tmin_value>  (3) 
unknown

>  <Tmin_units>  (3) 
unknown

>  <Tmax_value>  (3) 
unknown

>  <Tmax_units>  (3) 
unknown

>  <polynomials>  (3) 
unknown

>  <H298_value>  (3) 
unknown

>  <H298_units>  (3) 
unknown

>  <S298_value>  (3) 
unknown

>  <S298_units>  (3) 
unknown

>  <Cp_T_value_list>  (3) 
unknown

>  <Cp_T_units>  (3) 
unknown

>  <T_list>  (3) 
unknown

>  <T_units>  (3) 
unknown

>  <yaml_path>  (3) 
unknown

>  <frequencies_cm1>  (3) 
unknown

>  <ZPE_kJmol>  (3) 
unknown

>  <E_elec_kJmol>  (3) 
unknown

>  <E0_minus_Eelec_plus_ZPE_kJmol>  (3) 
unknown

>  <rxn>  (3) 
unknown

>  <species_type>  (3) 
unknown

>  <species_folder>  (3) 
unknown

>  <frequencies_cm1_list>  (3) 
[]

>  <ts_imag_freq_cm1>  (3) 
-1766.7853

>  <ts_freq_out_path>  (3) 
/home/calvin/Dropbox/PersonalFolders/Calvin/HAb_Converged/rxn_1011/output/rxns/TS0/geometry/freq.out

>  <E0_kJmol>  (3) 
-1.2266e+06

>  <H298_kJmol>  (3) 
unknown

$$$$

     RDKit          3D

  8  7  0  0  0  0  0  0  0  0999 V2000
   -1.2262   -0.1032    0.0429 C   0  0  0  0  0  0  0  0  0  1  0  0
    0.0344    0.4295    0.2005 C   0  0  0  0  0  0  0  0  0  2  0  0
    1.2024   -0.1933   -0.1813 C   0  0  0  0  0  3  0  0  0  3  0  0
   -2.1090    0.4329    0.3624 H   0  0  0  0  0  0  0  0  0  4  0  0
   -1.3659   -1.0784   -0.4078 H   0  0  0  0  0  0  0  0  0  5  0  0
    0.1132    1.4113    0.6589 H   0  0  0  0  0  0  0  0  0  6  0  0
    2.1658    0.2743   -0.0323 H   0  0  0  0  0  0  0  0  0  7  0  0
    1.1853   -1.1731   -0.6434 H   0  0  0  0  0  0  0  0  0  8  0  0
  1  5  1  0
  1  4  1  0
  1  2  1  0
  2  6  1  0
  2  3  1  0
  3  8  1  0
  3  7  1  0
M  RAD  1   3   2
M  END
>  <rmg_smiles>  (4) 
[CH2][CH][CH2]

>  <rmg_adjacency_list>  (4) 
multiplicity 2
1 C u0 p0 c0 {2,S} {3,S} {4,S}
2 C u1 p0 c0 {1,S} {7,S} {8,S}
3 C u0 p0 c0 {1,S} {5,S} {6,S}
4 H u0 p0 c0 {1,S}
5 H u0 p0 c0 {3,S}
6 H u0 p0 c0 {3,S}
7 H u0 p0 c0 {2,S}
8 H u0 p0 c0 {2,S}


>  <multiplicity>  (4) 
2

>  <reaction>  (4) 
rxn_1011

>  <type>  (4) 
r1

>  <role_mapnums>  (4) 
{}

>  <role_mapidx>  (4) 
{}

>  <ordered_mapped_smiles>  (4) 
[CH:1]([CH:2]([C:3]([H:7])[H:8])[H:6])([H:4])[H:5]

>  <level_of_theory>  (4) 
wb97xd/def2tzvp

>  <lot_method>  (4) 
wb97xd

>  <lot_basis>  (4) 
def2tzvp

>  <spin_multiplicity>  (4) 
2.0

>  <optical_isomers>  (4) 
1.0

>  <modes>  (4) 
IdealGasTranslation(mass=(41.0391, 'amu')),         NonlinearRotor(             inertia = ([9.18678, 48.3525, 57.5393

>  <frequency_value>  (4) 
unknown

>  <frequency_units>  (4) 
unknown

>  <frequency_list>  (4) 
unknown

>  <arkane_path>  (4) 
/home/calvin/Dropbox/PersonalFolders/Calvin/HAb_Converged/rxn_1011/output/Species/rxn_1011_[CH2]C=C/arkane/output.py

>  <path_exists>  (4) 
True

>  <E0_value>  (4) 
-307695.8239419476

>  <E0_units>  (4) 
kJ/mol

>  <thermo_class>  (4) 
NASA

>  <Cp0_value>  (4) 
33.257888

>  <Cp0_units>  (4) 
J/(mol*K)

>  <CpInf_value>  (4) 
182.918384

>  <CpInf_units>  (4) 
J/(mol*K)

>  <Tmin_value>  (4) 
10.0

>  <Tmin_units>  (4) 
K

>  <Tmax_value>  (4) 
3000.0

>  <Tmax_units>  (4) 
K

>  <polynomials>  (4) 
[{"name": "polynomial1", "class": "NASAPolynomial", "Tmin_value": 10.0, "Tmin_units": "K", "Tmax_value": 532.7267436952769, "Tmax_units": "K", "coeffs": [4.120476242700736, -0.01110500746607337, 0.00013118962632593044, -2.295122998736072e-07, 1.327617546042694e-10, -37007258.9235638, 6.732627685136077]}, {"name": "polynomial2", "class": "NASAPolynomial", "Tmin_value": 532.7267436952769, "Tmin_units": "K", "Tmax_value": 3000.0, "Tmax_units": "K", "coeffs": [0.911699466954835, 0.027118425571894478, -1.6222639840263127e-05, 4.752540164453407e-09, -5.404199600895895e-13, -37007117.54936121, 18.310519838179516]}]

>  <H298_value>  (4) 
-73538.08078140329

>  <H298_units>  (4) 
kcal/mol

>  <S298_value>  (4) 
61.52456331648896

>  <S298_units>  (4) 
cal/(mol*K)

>  <Cp_T_value_list>  (4) 
[14.853530963099974, 18.637467651362382, 21.80750730434748, 24.44088072021761, 28.68710434193412, 31.834263999492475, 36.54938793194129, 39.012029638884556, 40.38558701326713]

>  <Cp_T_units>  (4) 
cal/(mol*K)

>  <T_list>  (4) 
[300.0, 400.0, 500.0, 600.0, 800.0, 1000.0, 1500.0, 2000.0, 2400.0]

>  <T_units>  (4) 
K

>  <yaml_path>  (4) 
/home/calvin/Dropbox/PersonalFolders/Calvin/HAb_Converged/rxn_1011/output/Species/rxn_1011_[CH2]C=C/rxn_1011_CH2C=C.yml

>  <frequencies_cm1>  (4) 
[432.19432207015996, 530.70122648556, 552.78545127468, 794.8604177753199, 818.87426543936, 934.1091460942799, 1008.91808417036, 1035.1568350780801, 1186.33351689788, 1269.2386306662397, 1410.5886564931197, 1500.8483115392, 1510.5101598844399, 3121.9787379435197, 3123.6542823616, 3129.68349547256, 3223.1843675896794, 3225.69081723148]

>  <ZPE_kJmol>  (4) 
172.31799451557927

>  <E_elec_kJmol>  (4) 
-307868.1419364632

>  <E0_minus_Eelec_plus_ZPE_kJmol>  (4) 
0.0

>  <rxn>  (4) 
rxn_1011

>  <species_type>  (4) 
p1

>  <species_folder>  (4) 
rxn_1011_[CH2]C=C

>  <frequencies_cm1_list>  (4) 
[432.19432207015996, 530.70122648556, 552.78545127468, 794.8604177753199, 818.87426543936, 934.1091460942799, 1008.91808417036, 1035.1568350780801, 1186.33351689788, 1269.2386306662397, 1410.5886564931197, 1500.8483115392, 1510.5101598844399, 3121.9787379435197, 3123.6542823616, 3129.68349547256, 3223.1843675896794, 3225.69081723148]

>  <E0_kJmol>  (4) 
-307696

>  <H298_kJmol>  (4) 
-307683

$$$$

     RDKit          3D

 20 20  0  0  0  0  0  0  0  0999 V2000
   -2.4774    0.8083    0.1488 C   0  0  0  0  0  0  0  0  0  1  0  0
   -1.4172   -0.1696   -0.2476 C   0  0  0  0  0  3  0  0  0  2  0  0
   -0.2904    0.2932   -1.1156 C   0  0  0  0  0  0  0  0  0  3  0  0
   -1.4797   -1.5204    0.1947 C   0  0  0  0  0  0  0  0  0  4  0  0
   -0.4907   -2.4664   -0.1650 C   0  0  0  0  0  0  0  0  0  5  0  0
   -0.5559   -3.7750    0.2665 C   0  0  0  0  0  0  0  0  0  6  0  0
   -1.6038   -4.2041    1.0733 C   0  0  0  0  0  0  0  0  0  7  0  0
   -2.5899   -3.2959    1.4424 C   0  0  0  0  0  0  0  0  0  8  0  0
   -2.5339   -1.9852    1.0162 C   0  0  0  0  0  0  0  0  0  9  0  0
   -3.4697    0.4933   -0.1924 H   0  0  0  0  0  0  0  0  0 10  0  0
   -2.5434    0.9184    1.2368 H   0  0  0  0  0  0  0  0  0 11  0  0
   -2.2829    1.7944   -0.2706 H   0  0  0  0  0  0  0  0  0 12  0  0
   -0.2452   -0.2661   -2.0565 H   0  0  0  0  0  0  0  0  0 13  0  0
   -0.3905    1.3487   -1.3647 H   0  0  0  0  0  0  0  0  0 14  0  0
    0.6811    0.1589   -0.6274 H   0  0  0  0  0  0  0  0  0 15  0  0
    0.3373   -2.1635   -0.7918 H   0  0  0  0  0  0  0  0  0 16  0  0
    0.2187   -4.4725   -0.0281 H   0  0  0  0  0  0  0  0  0 17  0  0
   -1.6513   -5.2316    1.4097 H   0  0  0  0  0  0  0  0  0 18  0  0
   -3.4116   -3.6175    2.0706 H   0  0  0  0  0  0  0  0  0 19  0  0
   -3.3164   -1.3029    1.3205 H   0  0  0  0  0  0  0  0  0 20  0  0
  1 11  1  0
  1 10  1  0
  1 12  1  0
  1  2  1  0
  2  3  1  0
  2  4  1  0
  3 15  1  0
  3 13  1  0
  3 14  1  0
  4  9  1  0
  4  5  1  0
  5 16  1  0
  5  6  1  0
  6  7  1  0
  6 17  1  0
  7 18  1  0
  7  8  1  0
  8 19  1  0
  8  9  1  0
  9 20  1  0
M  RAD  1   2   2
M  END
>  <rmg_smiles>  (5) 
C[C](C)C1[CH][CH][CH][CH][CH]1

>  <rmg_adjacency_list>  (5) 
multiplicity 2
1  C u0 p0 c0 {3,S} {10,S} {11,S} {12,S}
2  C u0 p0 c0 {3,S} {13,S} {14,S} {15,S}
3  C u1 p0 c0 {1,S} {2,S} {4,S}
4  C u0 p0 c0 {3,S} {5,S} {6,S}
5  C u0 p0 c0 {4,S} {7,S} {16,S}
6  C u0 p0 c0 {4,S} {9,S} {20,S}
7  C u0 p0 c0 {5,S} {8,S} {17,S}
8  C u0 p0 c0 {7,S} {9,S} {18,S}
9  C u0 p0 c0 {6,S} {8,S} {19,S}
10 H u0 p0 c0 {1,S}
11 H u0 p0 c0 {1,S}
12 H u0 p0 c0 {1,S}
13 H u0 p0 c0 {2,S}
14 H u0 p0 c0 {2,S}
15 H u0 p0 c0 {2,S}
16 H u0 p0 c0 {5,S}
17 H u0 p0 c0 {7,S}
18 H u0 p0 c0 {8,S}
19 H u0 p0 c0 {9,S}
20 H u0 p0 c0 {6,S}


>  <multiplicity>  (5) 
2

>  <reaction>  (5) 
rxn_1011

>  <type>  (5) 
r2

>  <role_mapnums>  (5) 
{}

>  <role_mapidx>  (5) 
{}

>  <ordered_mapped_smiles>  (5) 
[C:1]([C:2]([C:3]([H:13])([H:14])[H:15])[CH:4]1[CH:5]([H:16])[CH:6]([H:17])[CH:7]([H:18])[CH:8]([H:19])[CH:9]1[H:20])([H:10])([H:11])[H:12]

>  <level_of_theory>  (5) 
wb97xd/def2tzvp

>  <lot_method>  (5) 
wb97xd

>  <lot_basis>  (5) 
def2tzvp

>  <spin_multiplicity>  (5) 
2.0

>  <optical_isomers>  (5) 
1.0

>  <modes>  (5) 
IdealGasTranslation(mass=(119.086, 'amu')),         NonlinearRotor(             inertia = ([147.943, 418.336, 560.064

>  <frequency_value>  (5) 
unknown

>  <frequency_units>  (5) 
unknown

>  <frequency_list>  (5) 
unknown

>  <arkane_path>  (5) 
/home/calvin/Dropbox/PersonalFolders/Calvin/HAb_Converged/rxn_1011/output/Species/rxn_1011_C[C][C]c1ccccc1/arkane/output.py

>  <path_exists>  (5) 
True

>  <E0_value>  (5) 
-917305.6793154374

>  <E0_units>  (5) 
kJ/mol

>  <thermo_class>  (5) 
NASA

>  <Cp0_value>  (5) 
33.257888

>  <Cp0_units>  (5) 
J/(mol*K)

>  <CpInf_value>  (5) 
482.239376

>  <CpInf_units>  (5) 
J/(mol*K)

>  <Tmin_value>  (5) 
10.0

>  <Tmin_units>  (5) 
K

>  <Tmax_value>  (5) 
3000.0

>  <Tmax_units>  (5) 
K

>  <polynomials>  (5) 
[{"name": "polynomial1", "class": "NASAPolynomial", "Tmin_value": 10.0, "Tmin_units": "K", "Tmax_value": 820.2225002457031, "Tmax_units": "K", "coeffs": [3.7087715908878534, 0.03551334410867291, 7.625059119540152e-05, -1.2560734316113271e-07, 5.320480088877488e-11, -110326392.84742013, 12.19412592857727]}, {"name": "polynomial2", "class": "NASAPolynomial", "Tmin_value": 820.2225002457031, "Tmin_units": "K", "Tmax_value": 3000.0, "Tmax_units": "K", "coeffs": [2.0631615838326263, 0.07155383546720528, -4.0892856549356014e-05, 1.1247434201086425e-08, -1.200197285964276e-12, -110327065.27984656, 14.06242109608226]}]

>  <H298_value>  (5) 
-219235.10103074583

>  <H298_units>  (5) 
kcal/mol

>  <S298_value>  (5) 
91.98557876161978

>  <S298_units>  (5) 
cal/(mol*K)

>  <Cp_T_value_list>  (5) 
[36.29610547032918, 46.57490747487287, 55.94477856481854, 64.04994476982951, 76.31181375819965, 84.99555925751662, 97.907834516263, 104.08137794150619, 107.1390022615462]

>  <Cp_T_units>  (5) 
cal/(mol*K)

>  <T_list>  (5) 
[300.0, 400.0, 500.0, 600.0, 800.0, 1000.0, 1500.0, 2000.0, 2400.0]

>  <T_units>  (5) 
K

>  <yaml_path>  (5) 
/home/calvin/Dropbox/PersonalFolders/Calvin/HAb_Converged/rxn_1011/output/Species/rxn_1011_C[C][C]c1ccccc1/rxn_1011_CCCc1ccccc1.yml

>  <frequencies_cm1>  (5) 
[63.56081612192, 120.90701052923998, 139.35173309875998, 146.39726003707997, 226.46630886828, 338.41877054023996, 360.33818768168, 416.18737928923997, 451.99870773303996, 518.2376481297599, 524.17759043156, 626.9420257453601, 690.9491959130801, 730.7777107690799, 767.1040631118799, 830.7266821016799, 897.8583305899999, 913.4944561636399, 942.5692720085199, 968.56767843004, 978.9505602338799, 993.91372124616, 999.23563486916, 1039.80578413972, 1044.4753341573198, 1105.9691876979198, 1113.02158162156, 1170.28537220504, 1199.70353731592, 1239.75866268748, 1319.3882244581998, 1348.18836089028, 1355.0896811368798, 1389.11559339748, 1406.12511603512, 1462.54426742424, 1462.78461191044, 1474.0258668792799, 1486.24910074888, 1486.8121935451197, 1509.72045657264, 1596.1139988835598, 1617.80680550944, 2981.31541064864, 2984.9205779416397, 3027.138803689, 3028.1413835457197, 3095.76058799176, 3103.71255699232, 3152.0767346010794, 3159.1703304366397, 3175.07426843776, 3181.8657169192397, 3186.23311958276]

>  <ZPE_kJmol>  (5) 
445.9053042173275

>  <E_elec_kJmol>  (5) 
-917751.5846196548

>  <E0_minus_Eelec_plus_ZPE_kJmol>  (5) 
0.0

>  <rxn>  (5) 
rxn_1011

>  <species_type>  (5) 
r1

>  <species_folder>  (5) 
rxn_1011_C[C][C]c1ccccc1

>  <frequencies_cm1_list>  (5) 
[63.56081612192, 120.90701052923998, 139.35173309875998, 146.39726003707997, 226.46630886828, 338.41877054023996, 360.33818768168, 416.18737928923997, 451.99870773303996, 518.2376481297599, 524.17759043156, 626.9420257453601, 690.9491959130801, 730.7777107690799, 767.1040631118799, 830.7266821016799, 897.8583305899999, 913.4944561636399, 942.5692720085199, 968.56767843004, 978.9505602338799, 993.91372124616, 999.23563486916, 1039.80578413972, 1044.4753341573198, 1105.9691876979198, 1113.02158162156, 1170.28537220504, 1199.70353731592, 1239.75866268748, 1319.3882244581998, 1348.18836089028, 1355.0896811368798, 1389.11559339748, 1406.12511603512, 1462.54426742424, 1462.78461191044, 1474.0258668792799, 1486.24910074888, 1486.8121935451197, 1509.72045657264, 1596.1139988835598, 1617.80680550944, 2981.31541064864, 2984.9205779416397, 3027.138803689, 3028.1413835457197, 3095.76058799176, 3103.71255699232, 3152.0767346010794, 3159.1703304366397, 3175.07426843776, 3181.8657169192397, 3186.23311958276]

>  <E0_kJmol>  (5) 
-917306

>  <H298_kJmol>  (5) 
-917280

$$$$
