
     RDKit          3D

 14 13  0  0  0  0  0  0  0  0999 V2000
    0.2225    0.0155   -1.4504 C   0  0  0  0  0  0  0  0  0  1  0  0
    0.2569   -0.0987    0.0536 C   0  0  0  0  0  0  0  0  0  2  0  0
    0.2046    1.2242    0.7762 C   0  0  0  0  0  0  0  0  0  3  0  0
   -0.6727   -1.1448    0.6163 C   0  0  0  0  0  0  0  0  0  4  0  0
    0.9829    0.7075   -1.8202 H   0  0  0  0  0  0  0  0  0  5  0  0
   -0.7506    0.3982   -1.7822 H   0  0  0  0  0  0  0  0  0  6  0  0
    0.3675   -0.9543   -1.9323 H   0  0  0  0  0  0  0  0  0  7  0  0
    1.2366   -0.4809    0.3402 H   0  0  0  0  0  0  0  0  0  8  0  0
   -0.7757    1.6986    0.6446 H   0  0  0  0  0  0  0  0  0  9  0  0
    0.3686    1.0917    1.8474 H   0  0  0  0  0  0  0  0  0 10  0  0
    0.9603    1.9159    0.3978 H   0  0  0  0  0  0  0  0  0 11  0  0
   -0.5308   -2.1103    0.1260 H   0  0  0  0  0  0  0  0  0 12  0  0
   -1.7195   -0.8499    0.4726 H   0  0  0  0  0  0  0  0  0 13  0  0
   -0.5090   -1.2783    1.6875 H   0  0  0  0  0  0  0  0  0 14  0  0
  1  5  1  0
  1  7  1  0
  1  6  1  0
  1  2  1  0
  2  8  1  0
  2  3  1  0
  2  4  1  0
  3 11  1  0
  3  9  1  0
  3 10  1  0
  4 14  1  0
  4 13  1  0
  4 12  1  0
M  END
>  <rmg_smiles>  (1) 
CC(C)C

>  <rmg_adjacency_list>  (1) 
1  C u0 p0 c0 {2,S} {3,S} {4,S} {5,S}
2  C u0 p0 c0 {1,S} {6,S} {7,S} {8,S}
3  C u0 p0 c0 {1,S} {9,S} {10,S} {11,S}
4  C u0 p0 c0 {1,S} {12,S} {13,S} {14,S}
5  H u0 p0 c0 {1,S}
6  H u0 p0 c0 {2,S}
7  H u0 p0 c0 {2,S}
8  H u0 p0 c0 {2,S}
9  H u0 p0 c0 {3,S}
10 H u0 p0 c0 {3,S}
11 H u0 p0 c0 {3,S}
12 H u0 p0 c0 {4,S}
13 H u0 p0 c0 {4,S}
14 H u0 p0 c0 {4,S}


>  <multiplicity>  (1) 
1

>  <reaction>  (1) 
rxn_993

>  <type>  (1) 
r1h

>  <role_mapnums>  (1) 
{"r1h_a": 2, "r1h_h": 8}

>  <role_mapidx>  (1) 
{"r1h_a": 1, "r1h_h": 7}

>  <ordered_mapped_smiles>  (1) 
[C:1]([C:2]([C:3]([H:9])([H:10])[H:11])([C:4]([H:12])([H:13])[H:14])[H:8])([H:5])([H:6])[H:7]

>  <mol_properties>  (1) 
{"1": {"label": "donator", "atom_type": "Cs"}, "7": {"label": "d_hydrogen", "atom_type": "H0"}}

>  <level_of_theory>  (1) 
wb97xd/def2tzvp

>  <lot_method>  (1) 
wb97xd

>  <lot_basis>  (1) 
def2tzvp

>  <spin_multiplicity>  (1) 
1.0

>  <optical_isomers>  (1) 
1.0

>  <modes>  (1) 
IdealGasTranslation(mass=(58.0782, 'amu')),         NonlinearRotor(             inertia = ([64.4721, 64.4725, 111.215

>  <frequency_value>  (1) 
unknown

>  <frequency_units>  (1) 
unknown

>  <frequency_list>  (1) 
unknown

>  <arkane_path>  (1) 
/home/calvin/Dropbox/PersonalFolders/Calvin/HAb_Converged/rxn_993/output/Species/rxn_993_CC[C]C/arkane/output.py

>  <path_exists>  (1) 
True

>  <E0_value>  (1) 
-415716.8644098224

>  <E0_units>  (1) 
kJ/mol

>  <thermo_class>  (1) 
NASA

>  <Cp0_value>  (1) 
33.257888

>  <Cp0_units>  (1) 
J/(mol*K)

>  <CpInf_value>  (1) 
332.57888

>  <CpInf_units>  (1) 
J/(mol*K)

>  <Tmin_value>  (1) 
10.0

>  <Tmin_units>  (1) 
K

>  <Tmax_value>  (1) 
3000.0

>  <Tmax_units>  (1) 
K

>  <polynomials>  (1) 
[{"name": "polynomial1", "class": "NASAPolynomial", "Tmin_value": 10.0, "Tmin_units": "K", "Tmax_value": 537.3880412070873, "Tmax_units": "K", "coeffs": [3.86309792444419, 0.00952881493042995, 8.525743575252117e-05, -1.3187447459199422e-07, 6.3878381804537e-11, -49999185.43466731, 7.557939839238046]}, {"name": "polynomial2", "class": "NASAPolynomial", "Tmin_value": 537.3880412070873, "Tmin_units": "K", "Tmax_value": 3000.0, "Tmax_units": "K", "coeffs": [-1.5235883306846079, 0.049624367150012436, -2.6661091120674077e-05, 6.9689294892902925e-09, -7.137753034269462e-13, -49998606.489877604, 30.200236095229837]}]

>  <H298_value>  (1) 
-99354.5403534587

>  <H298_units>  (1) 
kcal/mol

>  <S298_value>  (1) 
69.85866519299938

>  <S298_units>  (1) 
cal/(mol*K)

>  <Cp_T_value_list>  (1) 
[22.55820323591138, 28.836619458037138, 34.67666176503803, 39.8749332096442, 48.46505849289673, 55.03536983586154, 65.24427568290736, 70.37058410231585, 72.85921284350583]

>  <Cp_T_units>  (1) 
cal/(mol*K)

>  <T_list>  (1) 
[300.0, 400.0, 500.0, 600.0, 800.0, 1000.0, 1500.0, 2000.0, 2400.0]

>  <T_units>  (1) 
K

>  <yaml_path>  (1) 
/home/calvin/Dropbox/PersonalFolders/Calvin/HAb_Converged/rxn_993/output/Species/rxn_993_CC[C]C/rxn_993_CCCC.yml

>  <frequencies_cm1>  (1) 
[211.42761101748, 262.66218849, 263.85017695036, 368.77084565463997, 369.10046095, 435.28446546415995, 803.9660403096399, 924.7563120884399, 924.90051878016, 953.0826265334399, 976.2037661058798, 976.3823077241999, 1191.0648697833599, 1191.10607169528, 1204.11900887668, 1353.08452142344, 1353.1737922325997, 1393.2151836335197, 1393.43492716376, 1417.3183021067198, 1467.4816298693202, 1474.06020180588, 1474.21127548292, 1492.55986025796, 1492.5941951845598, 1500.8345775685598, 2997.8579782845195, 2999.7051973356, 2999.842537042, 3005.1850516209597, 3068.39565149156, 3068.49178928604, 3077.18539270116, 3079.13561653204, 3082.7064488984397, 3083.0017292672]

>  <ZPE_kJmol>  (1) 
342.910564818745

>  <E_elec_kJmol>  (1) 
-416059.7749746412

>  <E0_minus_Eelec_plus_ZPE_kJmol>  (1) 
0.0

>  <rxn>  (1) 
rxn_993

>  <species_type>  (1) 
r1

>  <species_folder>  (1) 
rxn_993_CC[C]C

>  <frequencies_cm1_list>  (1) 
[211.42761101748, 262.66218849, 263.85017695036, 368.77084565463997, 369.10046095, 435.28446546415995, 803.9660403096399, 924.7563120884399, 924.90051878016, 953.0826265334399, 976.2037661058798, 976.3823077241999, 1191.0648697833599, 1191.10607169528, 1204.11900887668, 1353.08452142344, 1353.1737922325997, 1393.2151836335197, 1393.43492716376, 1417.3183021067198, 1467.4816298693202, 1474.06020180588, 1474.21127548292, 1492.55986025796, 1492.5941951845598, 1500.8345775685598, 2997.8579782845195, 2999.7051973356, 2999.842537042, 3005.1850516209597, 3068.39565149156, 3068.49178928604, 3077.18539270116, 3079.13561653204, 3082.7064488984397, 3083.0017292672]

>  <E0_kJmol>  (1) 
-415717

>  <H298_kJmol>  (1) 
-415699

$$$$

     RDKit          3D

  8  7  0  0  0  0  0  0  0  0999 V2000
    0.6414   -0.0818   -2.3074 C   0  0  0  0  0  0  0  0  0  1  0  0
    0.7200   -0.2003   -0.9830 C   0  0  0  0  0  0  0  0  0  2  0  0
   -0.3753    0.1459   -0.1015 C   0  0  0  0  0  0  0  0  0  3  0  0
   -0.4124    0.0520    1.4928 S   0  0  0  0  0  0  0  0  0  4  0  0
    1.4753   -0.3476   -2.9446 H   0  0  0  0  0  0  0  0  0  5  0  0
   -0.2567    0.2833   -2.7885 H   0  0  0  0  0  0  0  0  0  6  0  0
    1.6300   -0.5688   -0.5163 H   0  0  0  0  0  0  0  0  0  7  0  0
   -1.2753    0.5125   -0.5952 H   0  0  0  0  0  0  0  0  0  8  0  0
  1  5  1  0
  1  6  1  0
  1  2  1  0
  2  7  1  0
  2  3  1  0
  3  8  1  0
  3  4  1  0
M  END
>  <rmg_smiles>  (2) 
[CH2][CH][CH][S]

>  <rmg_adjacency_list>  (2) 
1 S u0 p2 c0 {4,S}
2 C u0 p0 c0 {3,S} {4,S} {5,S}
3 C u0 p0 c0 {2,S} {6,S} {7,S}
4 C u0 p0 c0 {1,S} {2,S} {8,S}
5 H u0 p0 c0 {2,S}
6 H u0 p0 c0 {3,S}
7 H u0 p0 c0 {3,S}
8 H u0 p0 c0 {4,S}


>  <multiplicity>  (2) 
1

>  <reaction>  (2) 
rxn_993

>  <type>  (2) 
r2h

>  <role_mapnums>  (2) 
{"r2h_a": 3, "r2h_h": 8}

>  <role_mapidx>  (2) 
{"r2h_a": 2, "r2h_h": 7}

>  <ordered_mapped_smiles>  (2) 
[CH:1]([CH:2]([CH:3]([SH:4])[H:8])[H:7])([H:5])[H:6]

>  <mol_properties>  (2) 
{"2": {"label": "acceptor", "atom_type": "Cs"}, "7": {"label": "a_hydrogen", "atom_type": "H0"}}

>  <level_of_theory>  (2) 
wb97xd/def2tzvp

>  <lot_method>  (2) 
wb97xd

>  <lot_basis>  (2) 
def2tzvp

>  <spin_multiplicity>  (2) 
1.0

>  <optical_isomers>  (2) 
1.0

>  <modes>  (2) 
IdealGasTranslation(mass=(72.0034, 'amu')),         NonlinearRotor(             inertia = ([10.8259, 179.445, 190.271

>  <frequency_value>  (2) 
unknown

>  <frequency_units>  (2) 
unknown

>  <frequency_list>  (2) 
unknown

>  <arkane_path>  (2) 
/home/calvin/Dropbox/PersonalFolders/Calvin/HAb_Converged/rxn_993/output/Species/rxn_993_C=CC=S/arkane/output.py

>  <path_exists>  (2) 
True

>  <E0_value>  (2) 
-1351663.0036055504

>  <E0_units>  (2) 
kJ/mol

>  <thermo_class>  (2) 
NASA

>  <Cp0_value>  (2) 
33.257888

>  <Cp0_units>  (2) 
J/(mol*K)

>  <CpInf_value>  (2) 
182.918384

>  <CpInf_units>  (2) 
J/(mol*K)

>  <Tmin_value>  (2) 
10.0

>  <Tmin_units>  (2) 
K

>  <Tmax_value>  (2) 
3000.0

>  <Tmax_units>  (2) 
K

>  <polynomials>  (2) 
[{"name": "polynomial1", "class": "NASAPolynomial", "Tmin_value": 10.0, "Tmin_units": "K", "Tmax_value": 379.2644192115922, "Tmax_units": "K", "coeffs": [3.9765643065430916, 0.0016004709541293095, 8.72904253733476e-05, -1.7911724885444054e-07, 1.2101661725986147e-10, -162567509.24915665, 9.120160110672158]}, {"name": "polynomial2", "class": "NASAPolynomial", "Tmin_value": 379.2644192115922, "Tmin_units": "K", "Tmax_value": 3000.0, "Tmax_units": "K", "coeffs": [1.464888744558327, 0.0281037867234722, -1.7583624528695405e-05, 5.321955350531072e-09, -6.214743427137124e-13, -162567318.8273217, 18.801153395762828]}]

>  <H298_value>  (2) 
-323051.77369567833

>  <H298_units>  (2) 
kcal/mol

>  <S298_value>  (2) 
69.12773786002882

>  <S298_units>  (2) 
cal/(mol*K)

>  <Cp_T_value_list>  (2) 
[16.805632008963112, 20.304717440143907, 23.344267700018552, 25.964949893337177, 30.135357981253517, 33.15759755729083, 37.504149039419545, 39.684548396616805, 40.90462524755872]

>  <Cp_T_units>  (2) 
cal/(mol*K)

>  <T_list>  (2) 
[300.0, 400.0, 500.0, 600.0, 800.0, 1000.0, 1500.0, 2000.0, 2400.0]

>  <T_units>  (2) 
K

>  <yaml_path>  (2) 
/home/calvin/Dropbox/PersonalFolders/Calvin/HAb_Converged/rxn_993/output/Species/rxn_993_C=CC=S/rxn_993_C=CC=S.yml

>  <frequencies_cm1>  (2) 
[143.52686017332, 284.27945827736, 458.62534856684, 626.85962192152, 901.60770457472, 915.3554091853599, 995.0811087505599, 1035.17743603404, 1098.5734445082799, 1194.99965237172, 1299.26109048528, 1341.3969124088, 1455.1759921758799, 1675.0087932250397, 3064.563873683, 3123.0293866974803, 3158.3600261688803, 3216.07703778348]

>  <ZPE_kJmol>  (2) 
155.4365784144883

>  <E_elec_kJmol>  (2) 
-1351818.4401839648

>  <E0_minus_Eelec_plus_ZPE_kJmol>  (2) 
0.0

>  <rxn>  (2) 
rxn_993

>  <species_type>  (2) 
p0

>  <species_folder>  (2) 
rxn_993_C=CC=S

>  <frequencies_cm1_list>  (2) 
[143.52686017332, 284.27945827736, 458.62534856684, 626.85962192152, 901.60770457472, 915.3554091853599, 995.0811087505599, 1035.17743603404, 1098.5734445082799, 1194.99965237172, 1299.26109048528, 1341.3969124088, 1455.1759921758799, 1675.0087932250397, 3064.563873683, 3123.0293866974803, 3158.3600261688803, 3216.07703778348]

>  <E0_kJmol>  (2) 
-1.35166e+06

>  <H298_kJmol>  (2) 
-1.35165e+06

$$$$

     RDKit          3D

 21 19  0  0  0  0  0  0  0  0999 V2000
    1.9545   -0.4314   -1.7793 C   0  0  0  0  0  0  0  0  0  1  0  0
    2.0331   -0.5499   -0.4548 C   0  0  0  0  0  0  0  0  0  2  0  0
    0.9378   -0.2038    0.4266 C   0  0  0  0  0  3  0  0  0  3  0  0
    0.9007   -0.2977    2.0210 S   0  0  0  0  0  0  0  0  0  4  0  0
    2.7884   -0.6972   -2.4165 H   0  0  0  0  0  0  0  0  0  5  0  0
    1.0564   -0.0663   -2.2603 H   0  0  0  0  0  0  0  0  0  6  0  0
    2.9431   -0.9184    0.0118 H   0  0  0  0  0  0  0  0  0  7  0  0
   -1.4432    0.8453   -2.0531 C   0  0  0  0  0  0  0  0  0  8  0  0
   -1.4088    0.7311   -0.5491 C   0  0  0  0  0  0  0  0  0  9  0  0
   -1.4611    2.0540    0.1735 C   0  0  0  0  0  0  0  0  0 10  0  0
   -2.3384   -0.3150    0.0136 C   0  0  0  0  0  0  0  0  0 11  0  0
   -0.6827    1.5373   -2.4229 H   0  0  0  0  0  0  0  0  0 12  0  0
   -2.4163    1.2281   -2.3850 H   0  0  0  0  0  0  0  0  0 13  0  0
   -1.2981   -0.1245   -2.5350 H   0  0  0  0  0  0  0  0  0 14  0  0
   -0.1925    0.2567   -0.1934 H   0  0  0  0  0  0  0  0  0 15  0  0
   -2.4414    2.5284    0.0418 H   0  0  0  0  0  0  0  0  0 16  0  0
   -1.2970    1.9215    1.2447 H   0  0  0  0  0  0  0  0  0 17  0  0
   -0.7054    2.7457   -0.2050 H   0  0  0  0  0  0  0  0  0 18  0  0
   -2.1964   -1.2805   -0.4767 H   0  0  0  0  0  0  0  0  0 19  0  0
   -3.3851   -0.0201   -0.1301 H   0  0  0  0  0  0  0  0  0 20  0  0
   -2.1746   -0.4485    1.0847 H   0  0  0  0  0  0  0  0  0 21  0  0
  1  5  1  0
  1  6  1  0
  1  2  1  0
  2  3  1  0
  2  7  1  0
  3  4  1  0
  8  9  1  0
  8 13  1  0
  8 12  1  0
  8 14  1  0
  9 11  1  0
  9 15  1  0
  9 10  1  0
 10 16  1  0
 10 18  1  0
 10 17  1  0
 11 21  1  0
 11 19  1  0
 11 20  1  0
M  RAD  1   3   2
M  END
>  <rmg_smiles>  (3) 
CC(C)C.[CH2][CH][C][S]

>  <rmg_adjacency_list>  (3) 
multiplicity 2
1  S u0 p2 c0 {8,S}
2  C u0 p0 c0 {3,S} {4,S} {5,S} {9,S}
3  C u0 p0 c0 {2,S} {10,S} {11,S} {12,S}
4  C u0 p0 c0 {2,S} {13,S} {14,S} {15,S}
5  C u0 p0 c0 {2,S} {16,S} {17,S} {18,S}
6  C u0 p0 c0 {7,S} {8,S} {19,S}
7  C u0 p0 c0 {6,S} {20,S} {21,S}
8  C u1 p1 c0 {1,S} {6,S}
9  H u0 p0 c0 {2,S}
10 H u0 p0 c0 {3,S}
11 H u0 p0 c0 {3,S}
12 H u0 p0 c0 {3,S}
13 H u0 p0 c0 {4,S}
14 H u0 p0 c0 {4,S}
15 H u0 p0 c0 {4,S}
16 H u0 p0 c0 {5,S}
17 H u0 p0 c0 {5,S}
18 H u0 p0 c0 {5,S}
19 H u0 p0 c0 {6,S}
20 H u0 p0 c0 {7,S}
21 H u0 p0 c0 {7,S}


>  <multiplicity>  (3) 
2

>  <reaction>  (3) 
rxn_993

>  <type>  (3) 
ts

>  <role_mapnums>  (3) 
{"*2": 15, "*1": 9, "*3": 3, "*0": 8, "*4": 4}

>  <role_mapidx>  (3) 
{"*2": 14, "*1": 8, "*3": 2, "*0": 7, "*4": 3}

>  <ordered_mapped_smiles>  (3) 
[CH:1]([CH:2]([CH:3][SH:4])[H:7])([H:5])[H:6].[C:8]([C:9]([C:10]([H:16])([H:17])[H:18])([C:11]([H:19])([H:20])[H:21])[H:15])([H:12])([H:13])[H:14]

>  <mol_properties>  (3) 
{"2": {"label": "*3", "atom_type": "C2s"}, "3": {"label": "*4", "atom_type": "S2s"}, "7": {"label": "*0", "atom_type": "Cs"}, "8": {"label": "*1", "atom_type": "Cs"}, "14": {"label": "*2", "atom_type": "H0"}}

>  <level_of_theory>  (3) 
wb97xd/def2tzvp

>  <lot_method>  (3) 
wb97xd

>  <lot_basis>  (3) 
def2tzvp

>  <spin_multiplicity>  (3) 
2.0

>  <optical_isomers>  (3) 
1.0

>  <modes>  (3) 
IdealGasTranslation(mass=(129.074, 'amu')),         NonlinearRotor(             inertia = ([290.732, 449.589, 627.667

>  <frequency_value>  (3) 
-1791.02

>  <frequency_units>  (3) 
cm^-1

>  <frequency_list>  (3) 
unknown

>  <arkane_path>  (3) 
/home/calvin/Dropbox/PersonalFolders/Calvin/HAb_Converged/rxn_993/output/rxns/TS0/arkane/output.py

>  <path_exists>  (3) 
True

>  <E0_value>  (3) 
-1765630.0

>  <E0_units>  (3) 
kJ/mol

>  <thermo_class>  (3) 
unknown

>  <Cp0_value>  (3) 
unknown

>  <Cp0_units>  (3) 
unknown

>  <CpInf_value>  (3) 
unknown

>  <CpInf_units>  (3) 
unknown

>  <Tmin_value>  (3) 
unknown

>  <Tmin_units>  (3) 
unknown

>  <Tmax_value>  (3) 
unknown

>  <Tmax_units>  (3) 
unknown

>  <polynomials>  (3) 
unknown

>  <H298_value>  (3) 
unknown

>  <H298_units>  (3) 
unknown

>  <S298_value>  (3) 
unknown

>  <S298_units>  (3) 
unknown

>  <Cp_T_value_list>  (3) 
unknown

>  <Cp_T_units>  (3) 
unknown

>  <T_list>  (3) 
unknown

>  <T_units>  (3) 
unknown

>  <yaml_path>  (3) 
unknown

>  <frequencies_cm1>  (3) 
unknown

>  <ZPE_kJmol>  (3) 
unknown

>  <E_elec_kJmol>  (3) 
unknown

>  <E0_minus_Eelec_plus_ZPE_kJmol>  (3) 
unknown

>  <rxn>  (3) 
unknown

>  <species_type>  (3) 
unknown

>  <species_folder>  (3) 
unknown

>  <frequencies_cm1_list>  (3) 
[]

>  <ts_imag_freq_cm1>  (3) 
-1812.775

>  <ts_freq_out_path>  (3) 
/home/calvin/Dropbox/PersonalFolders/Calvin/HAb_Converged/rxn_993/output/rxns/TS0/geometry/freq.out

>  <E0_kJmol>  (3) 
-1.76563e+06

>  <H298_kJmol>  (3) 
unknown

$$$$

     RDKit          3D

 13 12  0  0  0  0  0  0  0  0999 V2000
   -1.3649   -0.5967   -0.3477 C   0  0  0  0  0  0  0  0  0  1  0  0
   -0.1601   -0.2776    0.4669 C   0  0  0  0  0  3  0  0  0  2  0  0
    1.1241   -0.9571    0.1414 C   0  0  0  0  0  0  0  0  0  3  0  0
   -0.1188    1.0130    1.2082 C   0  0  0  0  0  0  0  0  0  4  0  0
   -1.4265   -1.6632   -0.5770 H   0  0  0  0  0  0  0  0  0  5  0  0
   -2.2859   -0.3004    0.1602 H   0  0  0  0  0  0  0  0  0  6  0  0
   -1.3532   -0.0668   -1.3139 H   0  0  0  0  0  0  0  0  0  7  0  0
    1.6174   -0.4963   -0.7297 H   0  0  0  0  0  0  0  0  0  8  0  0
    0.9723   -2.0104   -0.1064 H   0  0  0  0  0  0  0  0  0  9  0  0
    1.8338   -0.8977    0.9701 H   0  0  0  0  0  0  0  0  0 10  0  0
   -1.0851    1.2507    1.6593 H   0  0  0  0  0  0  0  0  0 11  0  0
    0.6358    1.0009    1.9983 H   0  0  0  0  0  0  0  0  0 12  0  0
    0.1343    1.8546    0.5434 H   0  0  0  0  0  0  0  0  0 13  0  0
  1  5  1  0
  1  7  1  0
  1  6  1  0
  1  2  1  0
  2  3  1  0
  2  4  1  0
  3  9  1  0
  3 10  1  0
  3  8  1  0
  4 13  1  0
  4 12  1  0
  4 11  1  0
M  RAD  1   2   2
M  END
>  <rmg_smiles>  (4) 
C[C](C)C

>  <rmg_adjacency_list>  (4) 
multiplicity 2
1  C u0 p0 c0 {4,S} {5,S} {6,S} {7,S}
2  C u0 p0 c0 {4,S} {8,S} {9,S} {10,S}
3  C u0 p0 c0 {4,S} {11,S} {12,S} {13,S}
4  C u1 p0 c0 {1,S} {2,S} {3,S}
5  H u0 p0 c0 {1,S}
6  H u0 p0 c0 {1,S}
7  H u0 p0 c0 {1,S}
8  H u0 p0 c0 {2,S}
9  H u0 p0 c0 {2,S}
10 H u0 p0 c0 {2,S}
11 H u0 p0 c0 {3,S}
12 H u0 p0 c0 {3,S}
13 H u0 p0 c0 {3,S}


>  <multiplicity>  (4) 
2

>  <reaction>  (4) 
rxn_993

>  <type>  (4) 
r1

>  <role_mapnums>  (4) 
{}

>  <role_mapidx>  (4) 
{}

>  <ordered_mapped_smiles>  (4) 
[C:1]([C:2]([C:3]([H:8])([H:9])[H:10])[C:4]([H:11])([H:12])[H:13])([H:5])([H:6])[H:7]

>  <level_of_theory>  (4) 
wb97xd/def2tzvp

>  <lot_method>  (4) 
wb97xd

>  <lot_basis>  (4) 
def2tzvp

>  <spin_multiplicity>  (4) 
2.0

>  <optical_isomers>  (4) 
1.0

>  <modes>  (4) 
IdealGasTranslation(mass=(57.0704, 'amu')),         NonlinearRotor(             inertia = ([62.748, 62.7522, 115.629

>  <frequency_value>  (4) 
unknown

>  <frequency_units>  (4) 
unknown

>  <frequency_list>  (4) 
unknown

>  <arkane_path>  (4) 
/home/calvin/Dropbox/PersonalFolders/Calvin/HAb_Converged/rxn_993/output/Species/rxn_993_C[C][C]C/arkane/output.py

>  <path_exists>  (4) 
True

>  <E0_value>  (4) 
-414011.8699797355

>  <E0_units>  (4) 
kJ/mol

>  <thermo_class>  (4) 
NASA

>  <Cp0_value>  (4) 
33.257888

>  <Cp0_units>  (4) 
J/(mol*K)

>  <CpInf_value>  (4) 
307.635464

>  <CpInf_units>  (4) 
J/(mol*K)

>  <Tmin_value>  (4) 
10.0

>  <Tmin_units>  (4) 
K

>  <Tmax_value>  (4) 
3000.0

>  <Tmax_units>  (4) 
K

>  <polynomials>  (4) 
[{"name": "polynomial1", "class": "NASAPolynomial", "Tmin_value": 10.0, "Tmin_units": "K", "Tmax_value": 460.1626526253923, "Tmax_units": "K", "coeffs": [3.62850843979542, 0.03779106502898473, -8.954059924852182e-05, 2.3075181449310662e-07, -1.9347305821272097e-10, -49794125.86374399, 8.374704159545576]}, {"name": "polynomial2", "class": "NASAPolynomial", "Tmin_value": 460.1626526253923, "Tmin_units": "K", "Tmax_value": 3000.0, "Tmax_units": "K", "coeffs": [-0.4780403964207097, 0.04578122925079808, -2.527146613151047e-05, 6.7963078551909e-09, -7.149848744760922e-13, -49793454.587312356, 28.186381923357]}]

>  <H298_value>  (4) 
-98946.5735990878

>  <H298_units>  (4) 
kcal/mol

>  <S298_value>  (4) 
75.48737651071514

>  <S298_units>  (4) 
cal/(mol*K)

>  <Cp_T_value_list>  (4) 
[22.992657322289265, 28.285190701739907, 33.58291474680475, 38.290110504354274, 46.02381483398982, 51.892014181919315, 60.909732857158, 65.43723642185574, 67.69208799757676]

>  <Cp_T_units>  (4) 
cal/(mol*K)

>  <T_list>  (4) 
[300.0, 400.0, 500.0, 600.0, 800.0, 1000.0, 1500.0, 2000.0, 2400.0]

>  <T_units>  (4) 
K

>  <yaml_path>  (4) 
/home/calvin/Dropbox/PersonalFolders/Calvin/HAb_Converged/rxn_993/output/Species/rxn_993_C[C][C]C/rxn_993_CCCC.yml

>  <frequencies_cm1>  (4) 
[125.19200936892, 128.64610298487997, 129.28473261964, 257.14799927803995, 382.49794930931995, 382.87563350191994, 764.0551216298, 930.3185701976399, 930.3529051242399, 963.9324633390399, 1004.1729973142399, 1004.5506815068399, 1087.72360770268, 1293.6164285522398, 1293.76063524396, 1387.17223655192, 1387.5499207445198, 1410.6573263463201, 1453.51418172844, 1456.5425222545598, 1456.74166482884, 1475.6808103413996, 1477.9949843942402, 1478.2421958657599, 2923.2481827827196, 2923.63273396064, 2931.11774795944, 3026.39716927444, 3027.06326685048, 3028.0795806778397, 3072.3373010652394, 3076.1759458591196, 3076.7115707140792]

>  <ZPE_kJmol>  (4) 
303.5344768285922

>  <E_elec_kJmol>  (4) 
-414315.4044565641

>  <E0_minus_Eelec_plus_ZPE_kJmol>  (4) 
0.0

>  <rxn>  (4) 
rxn_993

>  <species_type>  (4) 
p1

>  <species_folder>  (4) 
rxn_993_C[C][C]C

>  <frequencies_cm1_list>  (4) 
[125.19200936892, 128.64610298487997, 129.28473261964, 257.14799927803995, 382.49794930931995, 382.87563350191994, 764.0551216298, 930.3185701976399, 930.3529051242399, 963.9324633390399, 1004.1729973142399, 1004.5506815068399, 1087.72360770268, 1293.6164285522398, 1293.76063524396, 1387.17223655192, 1387.5499207445198, 1410.6573263463201, 1453.51418172844, 1456.5425222545598, 1456.74166482884, 1475.6808103413996, 1477.9949843942402, 1478.2421958657599, 2923.2481827827196, 2923.63273396064, 2931.11774795944, 3026.39716927444, 3027.06326685048, 3028.0795806778397, 3072.3373010652394, 3076.1759458591196, 3076.7115707140792]

>  <E0_kJmol>  (4) 
-414012

>  <H298_kJmol>  (4) 
-413992

$$$$

     RDKit          3D

  7  6  0  0  0  0  0  0  0  0999 V2000
   -0.6904   -0.9066   -0.0346 C   0  0  0  0  0  0  0  0  0  1  0  0
    0.1413    0.0254   -0.6161 C   0  0  0  0  0  0  0  0  0  2  0  0
    0.4603    0.1105   -1.9267 C   0  0  0  0  0  3  0  0  0  3  0  0
    0.8318    0.2180   -3.4201 S   0  0  0  0  0  0  0  0  0  4  0  0
   -0.8731   -0.8770    1.0287 H   0  0  0  0  0  0  0  0  0  5  0  0
   -1.1718   -1.6767   -0.6199 H   0  0  0  0  0  0  0  0  0  6  0  0
    0.6090    0.7866    0.0044 H   0  0  0  0  0  0  0  0  0  7  0  0
  1  5  1  0
  1  6  1  0
  1  2  1  0
  2  7  1  0
  2  3  1  0
  3  4  1  0
M  RAD  1   3   2
M  END
>  <rmg_smiles>  (5) 
[CH2][CH][C][S]

>  <rmg_adjacency_list>  (5) 
multiplicity 2
1 S u0 p2 c0 {4,S}
2 C u0 p0 c0 {3,S} {4,S} {5,S}
3 C u0 p0 c0 {2,S} {6,S} {7,S}
4 C u1 p1 c0 {1,S} {2,S}
5 H u0 p0 c0 {2,S}
6 H u0 p0 c0 {3,S}
7 H u0 p0 c0 {3,S}


>  <multiplicity>  (5) 
2

>  <reaction>  (5) 
rxn_993

>  <type>  (5) 
r2

>  <role_mapnums>  (5) 
{}

>  <role_mapidx>  (5) 
{}

>  <ordered_mapped_smiles>  (5) 
[CH:1]([CH:2]([CH:3][SH:4])[H:7])([H:5])[H:6]

>  <level_of_theory>  (5) 
wb97xd/def2tzvp

>  <lot_method>  (5) 
wb97xd

>  <lot_basis>  (5) 
def2tzvp

>  <spin_multiplicity>  (5) 
2.0

>  <optical_isomers>  (5) 
1.0

>  <modes>  (5) 
IdealGasTranslation(mass=(70.9955, 'amu')),         NonlinearRotor(             inertia = ([10.5411, 179.005, 189.545

>  <frequency_value>  (5) 
unknown

>  <frequency_units>  (5) 
unknown

>  <frequency_list>  (5) 
unknown

>  <arkane_path>  (5) 
/home/calvin/Dropbox/PersonalFolders/Calvin/HAb_Converged/rxn_993/output/Species/rxn_993_C=C[C]=S/arkane/output.py

>  <path_exists>  (5) 
True

>  <E0_value>  (5) 
-1349993.0265723662

>  <E0_units>  (5) 
kJ/mol

>  <thermo_class>  (5) 
NASA

>  <Cp0_value>  (5) 
33.257888

>  <Cp0_units>  (5) 
J/(mol*K)

>  <CpInf_value>  (5) 
157.97496800000002

>  <CpInf_units>  (5) 
J/(mol*K)

>  <Tmin_value>  (5) 
10.0

>  <Tmin_units>  (5) 
K

>  <Tmax_value>  (5) 
3000.0

>  <Tmax_units>  (5) 
K

>  <polynomials>  (5) 
[{"name": "polynomial1", "class": "NASAPolynomial", "Tmin_value": 10.0, "Tmin_units": "K", "Tmax_value": 482.1301665802275, "Tmax_units": "K", "coeffs": [3.9339607670145957, 0.004302096978520193, 8.035838855252611e-05, -1.8150147447629097e-07, 1.2462580155687268e-10, -162366655.6604501, 9.642320969940064]}, {"name": "polynomial2", "class": "NASAPolynomial", "Tmin_value": 482.1301665802275, "Tmin_units": "K", "Tmax_value": 3000.0, "Tmax_units": "K", "coeffs": [3.400427758770762, 0.021645224311717642, -1.37856590531485e-05, 4.244047020172045e-09, -5.028191493369426e-13, -162366754.33756855, 10.270196831946016]}]

>  <H298_value>  (5) 
-322652.55047265504

>  <H298_units>  (5) 
kcal/mol

>  <S298_value>  (5) 
70.64361213735101

>  <S298_units>  (5) 
cal/(mol*K)

>  <Cp_T_value_list>  (5) 
[17.02196180246356, 20.04389454321789, 22.40715394507206, 24.39549126437832, 27.544237618727635, 29.810523671258657, 33.04459736313007, 34.68770283344468, 35.63248721043395]

>  <Cp_T_units>  (5) 
cal/(mol*K)

>  <T_list>  (5) 
[300.0, 400.0, 500.0, 600.0, 800.0, 1000.0, 1500.0, 2000.0, 2400.0]

>  <T_units>  (5) 
K

>  <yaml_path>  (5) 
/home/calvin/Dropbox/PersonalFolders/Calvin/HAb_Converged/rxn_993/output/Species/rxn_993_C=C[C]=S/rxn_993_C=CC=S.yml

>  <frequencies_cm1>  (5) 
[184.57083143095997, 214.92290654536, 515.6487946641199, 562.7082450620801, 730.0017414279199, 762.2216365493599, 843.0666547217199, 1034.47013654608, 1198.8726320921999, 1337.5170657029998, 1487.49889207712, 1626.2463304677199, 3117.87914770748, 3147.4895884073203, 3250.46690026604]

>  <ZPE_kJmol>  (5) 
119.7078354553374

>  <E_elec_kJmol>  (5) 
-1350112.7344078217

>  <E0_minus_Eelec_plus_ZPE_kJmol>  (5) 
0.0

>  <rxn>  (5) 
rxn_993

>  <species_type>  (5) 
r0

>  <species_folder>  (5) 
rxn_993_C=C[C]=S

>  <frequencies_cm1_list>  (5) 
[184.57083143095997, 214.92290654536, 515.6487946641199, 562.7082450620801, 730.0017414279199, 762.2216365493599, 843.0666547217199, 1034.47013654608, 1198.8726320921999, 1337.5170657029998, 1487.49889207712, 1626.2463304677199, 3117.87914770748, 3147.4895884073203, 3250.46690026604]

>  <E0_kJmol>  (5) 
-1.34999e+06

>  <H298_kJmol>  (5) 
-1.34998e+06

$$$$
