
     RDKit          3D

  9  8  0  0  0  0  0  0  0  0999 V2000
    0.3192    1.4412   -1.8041 C   0  0  0  0  0  2  0  0  0  1  0  0
    0.4646    0.5887   -0.9702 C   0  0  0  0  0  2  0  0  0  2  0  0
    0.7052   -0.3682    0.0563 C   0  0  0  0  0  0  0  0  0  3  0  0
   -0.3618   -0.7017    0.9394 C   0  0  0  0  0  2  0  0  0  4  0  0
   -1.2212   -0.9662    1.7362 C   0  0  0  0  0  2  0  0  0  5  0  0
    0.1685    2.1777   -2.5560 H   0  0  0  0  0  0  0  0  0  6  0  0
    1.4117    0.1576    0.6957 H   0  0  0  0  0  0  0  0  0  7  0  0
    1.3318   -1.2066   -0.2419 H   0  0  0  0  0  0  0  0  0  8  0  0
   -1.9984   -1.2073    2.4205 H   0  0  0  0  0  0  0  0  0  9  0  0
  1  6  1  0
  1  2  1  0
  2  3  1  0
  3  4  1  0
  3  7  1  0
  3  8  1  0
  4  5  1  0
  5  9  1  0
M  RAD  4   1   3   2   3   4   3   5   3
M  END
>  <rmg_smiles>  (1) 
[CH][C]C[C][CH]

>  <rmg_adjacency_list>  (1) 
1 C u0 p0 c0 {2,S} {3,S} {6,S} {7,S}
2 C u0 p1 c0 {1,S} {4,S}
3 C u0 p1 c0 {1,S} {5,S}
4 C u0 p1 c0 {2,S} {8,S}
5 C u0 p1 c0 {3,S} {9,S}
6 H u0 p0 c0 {1,S}
7 H u0 p0 c0 {1,S}
8 H u0 p0 c0 {4,S}
9 H u0 p0 c0 {5,S}


>  <multiplicity>  (1) 
1

>  <reaction>  (1) 
rxn_1353

>  <type>  (1) 
r1h

>  <role_mapnums>  (1) 
{"r1h_a": 3, "r1h_h": 7}

>  <role_mapidx>  (1) 
{"r1h_a": 2, "r1h_h": 6}

>  <ordered_mapped_smiles>  (1) 
[C:1]([C:2][C:3]([C:4][C:5][H:9])([H:7])[H:8])[H:6]

>  <mol_properties>  (1) 
{"2": {"label": "donator", "atom_type": "Cs"}, "6": {"label": "d_hydrogen", "atom_type": "H0"}}

>  <level_of_theory>  (1) 
wb97xd/def2tzvp

>  <lot_method>  (1) 
wb97xd

>  <lot_basis>  (1) 
def2tzvp

>  <spin_multiplicity>  (1) 
1.0

>  <optical_isomers>  (1) 
1.0

>  <modes>  (1) 
IdealGasTranslation(mass=(64.0313, 'amu')),         NonlinearRotor(             inertia = ([26.0751, 176.474, 199.453

>  <frequency_value>  (1) 
unknown

>  <frequency_units>  (1) 
unknown

>  <frequency_list>  (1) 
unknown

>  <arkane_path>  (1) 
/home/calvin/Dropbox/PersonalFolders/Calvin/HAb_Converged/rxn_1353/output/Species/rxn_1353_CtCCCtC/arkane/output.py

>  <path_exists>  (1) 
True

>  <E0_value>  (1) 
-505987.19351265096

>  <E0_units>  (1) 
kJ/mol

>  <thermo_class>  (1) 
NASA

>  <Cp0_value>  (1) 
33.257888

>  <Cp0_units>  (1) 
J/(mol*K)

>  <CpInf_value>  (1) 
207.8618

>  <CpInf_units>  (1) 
J/(mol*K)

>  <Tmin_value>  (1) 
10.0

>  <Tmin_units>  (1) 
K

>  <Tmax_value>  (1) 
3000.0

>  <Tmax_units>  (1) 
K

>  <polynomials>  (1) 
[{"name": "polynomial1", "class": "NASAPolynomial", "Tmin_value": 10.0, "Tmin_units": "K", "Tmax_value": 497.8513259912737, "Tmax_units": "K", "coeffs": [3.8915923857803536, 0.006957077216274673, 0.00011247108954423451, -2.58415972479989e-07, 1.7696354569532415e-10, -60856199.4251038, 8.432123404375208]}, {"name": "polynomial2", "class": "NASAPolynomial", "Tmin_value": 497.8513259912737, "Tmin_units": "K", "Tmax_value": 3000.0, "Tmax_units": "K", "coeffs": [4.075787334974484, 0.027762889535938477, -1.736147806652233e-05, 5.355292661241066e-09, -6.423462202508128e-13, -60856493.94799508, 4.89821145227154]}]

>  <H298_value>  (1) 
-120929.79228656254

>  <H298_units>  (1) 
kcal/mol

>  <S298_value>  (1) 
71.02155085771051

>  <S298_units>  (1) 
cal/(mol*K)

>  <Cp_T_value_list>  (1) 
[20.979509503559502, 25.16090011310623, 28.30999724146717, 30.91474121272046, 35.081264888538236, 38.134781385911204, 42.68326999943224, 45.150237682434486, 46.5496532279807]

>  <Cp_T_units>  (1) 
cal/(mol*K)

>  <T_list>  (1) 
[300.0, 400.0, 500.0, 600.0, 800.0, 1000.0, 1500.0, 2000.0, 2400.0]

>  <T_units>  (1) 
K

>  <yaml_path>  (1) 
/home/calvin/Dropbox/PersonalFolders/Calvin/HAb_Converged/rxn_1353/output/Species/rxn_1353_CtCCCtC/rxn_1353_CtCCCtC.yml

>  <frequencies_cm1>  (1) 
[136.57060404415998, 317.76287869768, 341.09689481504, 341.70805650852003, 565.30396551304, 688.26420465296, 689.33545436288, 698.59215057424, 701.977574337, 902.24633420948, 929.56320181244, 996.6124464769199, 1233.63331178204, 1332.80631377348, 1444.34675632624, 2232.8002767979997, 2237.0990096083196, 3019.1456327765195, 3054.0230512167996, 3436.67207420316, 3437.69525501584]

>  <ZPE_kJmol>  (1) 
171.88700812582363

>  <E_elec_kJmol>  (1) 
-506159.0805207768

>  <E0_minus_Eelec_plus_ZPE_kJmol>  (1) 
0.0

>  <rxn>  (1) 
rxn_1353

>  <species_type>  (1) 
r0

>  <species_folder>  (1) 
rxn_1353_CtCCCtC

>  <frequencies_cm1_list>  (1) 
[136.57060404415998, 317.76287869768, 341.09689481504, 341.70805650852003, 565.30396551304, 688.26420465296, 689.33545436288, 698.59215057424, 701.977574337, 902.24633420948, 929.56320181244, 996.6124464769199, 1233.63331178204, 1332.80631377348, 1444.34675632624, 2232.8002767979997, 2237.0990096083196, 3019.1456327765195, 3054.0230512167996, 3436.67207420316, 3437.69525501584]

>  <E0_kJmol>  (1) 
-505987

>  <H298_kJmol>  (1) 
-505970

$$$$

     RDKit          3D

 13 12  0  0  0  0  0  0  0  0999 V2000
   -0.7797   -1.2861   -0.3911 H   0  0  0  0  0  0  0  0  0  1  0  0
   -1.8400    0.8656    1.1418 C   0  0  0  0  0  0  0  0  0  2  0  0
   -0.8562    0.5971    0.2846 C   0  0  0  0  0  0  0  0  0  3  0  0
   -0.1415   -0.6780    0.2494 C   0  0  0  0  0  0  0  0  0  4  0  0
    1.1766   -0.7966   -0.3827 C   0  0  0  0  0  0  0  0  0  5  0  0
    1.7147    0.0367   -1.2728 C   0  0  0  0  0  0  0  0  0  6  0  0
   -2.3735    1.8064    1.1105 H   0  0  0  0  0  0  0  0  0  7  0  0
   -2.1411    0.1493    1.8979 H   0  0  0  0  0  0  0  0  0  8  0  0
   -0.6026    1.3354   -0.4680 H   0  0  0  0  0  0  0  0  0  9  0  0
   -0.2460   -1.2588    1.1655 H   0  0  0  0  0  0  0  0  0 10  0  0
    1.7321   -1.6925   -0.1211 H   0  0  0  0  0  0  0  0  0 11  0  0
    2.6842   -0.1689   -1.7067 H   0  0  0  0  0  0  0  0  0 12  0  0
    1.2194    0.9433   -1.5968 H   0  0  0  0  0  0  0  0  0 13  0  0
  1  4  1  0
  2  7  1  0
  2  8  1  0
  2  3  1  0
  3  4  1  0
  3  9  1  0
  4  5  1  0
  4 10  1  0
  5 11  1  0
  5  6  1  0
  6 13  1  0
  6 12  1  0
M  END
>  <rmg_smiles>  (2) 
[CH2][CH]C[CH][CH2]

>  <rmg_adjacency_list>  (2) 
1  C u0 p0 c0 {2,S} {3,S} {6,S} {7,S}
2  C u0 p0 c0 {1,S} {4,S} {8,S}
3  C u0 p0 c0 {1,S} {5,S} {9,S}
4  C u0 p0 c0 {2,S} {10,S} {11,S}
5  C u0 p0 c0 {3,S} {12,S} {13,S}
6  H u0 p0 c0 {1,S}
7  H u0 p0 c0 {1,S}
8  H u0 p0 c0 {2,S}
9  H u0 p0 c0 {3,S}
10 H u0 p0 c0 {4,S}
11 H u0 p0 c0 {4,S}
12 H u0 p0 c0 {5,S}
13 H u0 p0 c0 {5,S}


>  <multiplicity>  (2) 
1

>  <reaction>  (2) 
rxn_1353

>  <type>  (2) 
r2h

>  <role_mapnums>  (2) 
{"r2h_a": 4, "r2h_h": 1}

>  <role_mapidx>  (2) 
{"r2h_a": 3, "r2h_h": 0}

>  <ordered_mapped_smiles>  (2) 
[H:1][C:4]([CH:3]([CH:2]([H:7])[H:8])[H:9])([CH:5]([CH:6]([H:12])[H:13])[H:11])[H:10]

>  <mol_properties>  (2) 
{"0": {"label": "a_hydrogen", "atom_type": "H0"}, "3": {"label": "acceptor", "atom_type": "Cs"}}

>  <level_of_theory>  (2) 
wb97xd/def2tzvp

>  <lot_method>  (2) 
wb97xd

>  <lot_basis>  (2) 
def2tzvp

>  <spin_multiplicity>  (2) 
1.0

>  <optical_isomers>  (2) 
2.0

>  <modes>  (2) 
IdealGasTranslation(mass=(68.0626, 'amu')),         NonlinearRotor(             inertia = ([45.0412, 159.938, 187.579

>  <frequency_value>  (2) 
unknown

>  <frequency_units>  (2) 
unknown

>  <frequency_list>  (2) 
unknown

>  <arkane_path>  (2) 
/home/calvin/Dropbox/PersonalFolders/Calvin/HAb_Converged/rxn_1353/output/Species/rxn_1353_C=CCC=C/arkane/output.py

>  <path_exists>  (2) 
True

>  <E0_value>  (2) 
-512473.3799039456

>  <E0_units>  (2) 
kJ/mol

>  <thermo_class>  (2) 
NASA

>  <Cp0_value>  (2) 
33.257888

>  <Cp0_units>  (2) 
J/(mol*K)

>  <CpInf_value>  (2) 
307.635464

>  <CpInf_units>  (2) 
J/(mol*K)

>  <Tmin_value>  (2) 
10.0

>  <Tmin_units>  (2) 
K

>  <Tmax_value>  (2) 
3000.0

>  <Tmax_units>  (2) 
K

>  <polynomials>  (2) 
[{"name": "polynomial1", "class": "NASAPolynomial", "Tmin_value": 10.0, "Tmin_units": "K", "Tmax_value": 819.4804820196184, "Tmax_units": "K", "coeffs": [3.8786961323103277, 0.01518848526354921, 5.629175519915376e-05, -8.158967068239976e-08, 3.30459758185792e-11, -61636312.679365546, 10.298540277465028]}, {"name": "polynomial2", "class": "NASAPolynomial", "Tmin_value": 819.4804820196184, "Tmin_units": "K", "Tmax_value": 3000.0, "Tmax_units": "K", "coeffs": [0.9713570478533602, 0.04440309225960069, -2.468286623666531e-05, 6.656489578832237e-09, -7.002700885295111e-13, -61636340.62723716, 20.6681030649648]}]

>  <H298_value>  (2) 
-122479.74618776135

>  <H298_units>  (2) 
kcal/mol

>  <S298_value>  (2) 
77.03784100856907

>  <S298_units>  (2) 
cal/(mol*K)

>  <Cp_T_value_list>  (2) 
[22.98452912921813, 28.98342495343222, 34.60231709225981, 39.57761952390819, 47.33114131422195, 52.95468648559353, 61.52407504834919, 65.76395981018108, 67.86608281001313]

>  <Cp_T_units>  (2) 
cal/(mol*K)

>  <T_list>  (2) 
[300.0, 400.0, 500.0, 600.0, 800.0, 1000.0, 1500.0, 2000.0, 2400.0]

>  <T_units>  (2) 
K

>  <yaml_path>  (2) 
/home/calvin/Dropbox/PersonalFolders/Calvin/HAb_Converged/rxn_1353/output/Species/rxn_1353_C=CCC=C/rxn_1353_C=CCC=C.yml

>  <frequencies_cm1>  (2) 
[87.95234797856001, 151.90458226372, 257.19606817528, 416.50326061396, 498.01437636235994, 571.25077480016, 682.49593698416, 887.8393990081199, 919.5923391278, 958.3564712591999, 961.16506825508, 963.55477914644, 1034.0581174268798, 1039.2220903875198, 1080.8909573092799, 1137.2757737718, 1245.9046145488799, 1315.20623039832, 1324.3393208739199, 1346.8492987528798, 1434.93211945252, 1443.44718124932, 1463.70478794332, 1713.3403052812798, 1720.18668964532, 2995.26912481888, 3030.3800207600398, 3111.8568015818396, 3116.1074654949202, 3123.6062134643594, 3128.7427184837197, 3202.1645255251597, 3207.6031778986]

>  <ZPE_kJmol>  (2) 
296.4999886896896

>  <E_elec_kJmol>  (2) 
-512769.8798926352

>  <E0_minus_Eelec_plus_ZPE_kJmol>  (2) 
0.0

>  <rxn>  (2) 
rxn_1353

>  <species_type>  (2) 
p0

>  <species_folder>  (2) 
rxn_1353_C=CCC=C

>  <frequencies_cm1_list>  (2) 
[87.95234797856001, 151.90458226372, 257.19606817528, 416.50326061396, 498.01437636235994, 571.25077480016, 682.49593698416, 887.8393990081199, 919.5923391278, 958.3564712591999, 961.16506825508, 963.55477914644, 1034.0581174268798, 1039.2220903875198, 1080.8909573092799, 1137.2757737718, 1245.9046145488799, 1315.20623039832, 1324.3393208739199, 1346.8492987528798, 1434.93211945252, 1443.44718124932, 1463.70478794332, 1713.3403052812798, 1720.18668964532, 2995.26912481888, 3030.3800207600398, 3111.8568015818396, 3116.1074654949202, 3123.6062134643594, 3128.7427184837197, 3202.1645255251597, 3207.6031778986]

>  <E0_kJmol>  (2) 
-512473

>  <H298_kJmol>  (2) 
-512455

$$$$

     RDKit          3D

 21 19  0  0  0  0  0  0  0  0999 V2000
   -0.9532    0.5850   -2.4421 C   0  0  0  0  0  0  0  0  0  1  0  0
   -0.8078   -0.2676   -1.6082 C   0  0  0  0  0  0  0  0  0  2  0  0
   -0.5672   -1.2244   -0.5818 C   0  0  0  0  0  3  0  0  0  3  0  0
   -1.6342   -1.5579    0.3014 C   0  0  0  0  0  0  0  0  0  4  0  0
   -2.4936   -1.8225    1.0981 C   0  0  0  0  0  0  0  0  0  5  0  0
   -1.1039    1.3215   -3.1941 H   0  0  0  0  0  0  0  0  0  6  0  0
    0.3445   -0.5459    0.2434 H   0  0  0  0  0  0  0  0  0  7  0  0
    0.0594   -2.0628   -0.8799 H   0  0  0  0  0  0  0  0  0  8  0  0
   -3.2708   -2.0635    1.7825 H   0  0  0  0  0  0  0  0  0  9  0  0
   -0.5851    1.7304    1.9074 C   0  0  0  0  0  0  0  0  0 10  0  0
    0.3988    1.4619    1.0502 C   0  0  0  0  0  0  0  0  0 11  0  0
    1.1134    0.1868    1.0150 C   0  0  0  0  0  0  0  0  0 12  0  0
    2.4315    0.0681    0.3829 C   0  0  0  0  0  0  0  0  0 13  0  0
    2.9696    0.9015   -0.5072 C   0  0  0  0  0  0  0  0  0 14  0  0
   -1.1186    2.6711    1.8761 H   0  0  0  0  0  0  0  0  0 15  0  0
   -0.8861    1.0141    2.6635 H   0  0  0  0  0  0  0  0  0 16  0  0
    0.6524    2.2002    0.2976 H   0  0  0  0  0  0  0  0  0 17  0  0
    1.0089   -0.3940    1.9311 H   0  0  0  0  0  0  0  0  0 18  0  0
    2.9870   -0.8277    0.6445 H   0  0  0  0  0  0  0  0  0 19  0  0
    3.9392    0.6958   -0.9411 H   0  0  0  0  0  0  0  0  0 20  0  0
    2.4743    1.8081   -0.8312 H   0  0  0  0  0  0  0  0  0 21  0  0
  1  6  1  0
  1  2  1  0
  2  3  1  0
  3  4  1  0
  3  8  1  0
  4  5  1  0
  5  9  1  0
  7 12  1  0
 10 16  1  0
 10 15  1  0
 10 11  1  0
 11 17  1  0
 11 12  1  0
 12 18  1  0
 12 13  1  0
 13 19  1  0
 13 14  1  0
 14 20  1  0
 14 21  1  0
M  RAD  1   3   2
M  END
>  <rmg_smiles>  (3) 
[CH2][CH]C[CH][CH2].[CH]C[CH]C[CH]

>  <rmg_adjacency_list>  (3) 
multiplicity 2
1  C u0 p0 c0 {2,S} {3,S} {11,S} {12,S}
2  C u0 p0 c0 {1,S} {4,S} {13,S}
3  C u0 p0 c0 {1,S} {5,S} {14,S}
4  C u0 p0 c0 {2,S} {16,S} {17,S}
5  C u0 p0 c0 {3,S} {18,S} {19,S}
6  C u1 p0 c0 {7,S} {8,S} {15,S}
7  C u0 p1 c0 {6,S} {9,S}
8  C u0 p1 c0 {6,S} {10,S}
9  C u0 p1 c0 {7,S} {20,S}
10 C u0 p1 c0 {8,S} {21,S}
11 H u0 p0 c0 {1,S}
12 H u0 p0 c0 {1,S}
13 H u0 p0 c0 {2,S}
14 H u0 p0 c0 {3,S}
15 H u0 p0 c0 {6,S}
16 H u0 p0 c0 {4,S}
17 H u0 p0 c0 {4,S}
18 H u0 p0 c0 {5,S}
19 H u0 p0 c0 {5,S}
20 H u0 p0 c0 {9,S}
21 H u0 p0 c0 {10,S}


>  <multiplicity>  (3) 
2

>  <reaction>  (3) 
rxn_1353

>  <type>  (3) 
ts

>  <role_mapnums>  (3) 
{"*2": 7, "*1": 3, "*3": 12, "*0": 11, "*4": 2}

>  <role_mapidx>  (3) 
{"*2": 6, "*1": 2, "*3": 11, "*0": 10, "*4": 1}

>  <ordered_mapped_smiles>  (3) 
[CH2:1]([CH2:2][C:3]([CH2:4][CH2:5][H:9])[H:8])[H:6].[H:7][C:12]([CH:11]([CH:10]([H:15])[H:16])[H:17])([CH:13]([CH:14]([H:20])[H:21])[H:19])[H:18]

>  <mol_properties>  (3) 
{"1": {"label": "*4", "atom_type": "C2s"}, "2": {"label": "*1", "atom_type": "Cs"}, "6": {"label": "*2", "atom_type": "H0"}, "10": {"label": "*0", "atom_type": "Cs"}, "11": {"label": "*3", "atom_type": "Cs"}}

>  <level_of_theory>  (3) 
wb97xd/def2tzvp

>  <lot_method>  (3) 
wb97xd

>  <lot_basis>  (3) 
def2tzvp

>  <spin_multiplicity>  (3) 
2.0

>  <optical_isomers>  (3) 
2.0

>  <modes>  (3) 
IdealGasTranslation(mass=(131.086, 'amu')),         NonlinearRotor(             inertia = ([352.102, 562.044, 668.853

>  <frequency_value>  (3) 
-1776.47

>  <frequency_units>  (3) 
cm^-1

>  <frequency_list>  (3) 
unknown

>  <arkane_path>  (3) 
/home/calvin/Dropbox/PersonalFolders/Calvin/HAb_Converged/rxn_1353/output/rxns/TS0/arkane/output.py

>  <path_exists>  (3) 
True

>  <E0_value>  (3) 
-1016750.0

>  <E0_units>  (3) 
kJ/mol

>  <thermo_class>  (3) 
unknown

>  <Cp0_value>  (3) 
unknown

>  <Cp0_units>  (3) 
unknown

>  <CpInf_value>  (3) 
unknown

>  <CpInf_units>  (3) 
unknown

>  <Tmin_value>  (3) 
unknown

>  <Tmin_units>  (3) 
unknown

>  <Tmax_value>  (3) 
unknown

>  <Tmax_units>  (3) 
unknown

>  <polynomials>  (3) 
unknown

>  <H298_value>  (3) 
unknown

>  <H298_units>  (3) 
unknown

>  <S298_value>  (3) 
unknown

>  <S298_units>  (3) 
unknown

>  <Cp_T_value_list>  (3) 
unknown

>  <Cp_T_units>  (3) 
unknown

>  <T_list>  (3) 
unknown

>  <T_units>  (3) 
unknown

>  <yaml_path>  (3) 
unknown

>  <frequencies_cm1>  (3) 
unknown

>  <ZPE_kJmol>  (3) 
unknown

>  <E_elec_kJmol>  (3) 
unknown

>  <E0_minus_Eelec_plus_ZPE_kJmol>  (3) 
unknown

>  <rxn>  (3) 
unknown

>  <species_type>  (3) 
unknown

>  <species_folder>  (3) 
unknown

>  <frequencies_cm1_list>  (3) 
[]

>  <ts_imag_freq_cm1>  (3) 
-1798.0481

>  <ts_freq_out_path>  (3) 
/home/calvin/Dropbox/PersonalFolders/Calvin/HAb_Converged/rxn_1353/output/rxns/TS0/geometry/freq.out

>  <E0_kJmol>  (3) 
-1.01675e+06

>  <H298_kJmol>  (3) 
unknown

$$$$

     RDKit          3D

  8  7  0  0  0  0  0  0  0  0999 V2000
   -2.2129    0.4855    0.7390 C   0  0  0  0  0  0  0  0  0  1  0  0
   -1.2226    0.0526    0.1974 C   0  0  0  0  0  0  0  0  0  2  0  0
   -0.1006   -0.4575   -0.4419 C   0  0  0  0  0  3  0  0  0  3  0  0
    1.1960   -0.1737   -0.0342 C   0  0  0  0  0  0  0  0  0  4  0  0
    2.3329    0.0603    0.3036 C   0  0  0  0  0  0  0  0  0  5  0  0
   -3.0803    0.8696    1.2198 H   0  0  0  0  0  0  0  0  0  6  0  0
   -0.2433   -1.1067   -1.2980 H   0  0  0  0  0  0  0  0  0  7  0  0
    3.3308    0.2700    0.6058 H   0  0  0  0  0  0  0  0  0  8  0  0
  1  6  1  0
  1  2  1  0
  2  3  1  0
  3  4  1  0
  3  7  1  0
  4  5  1  0
  5  8  1  0
M  RAD  1   3   2
M  END
>  <rmg_smiles>  (4) 
[CH]C[CH]C[CH]

>  <rmg_adjacency_list>  (4) 
multiplicity 2
1 C u1 p0 c0 {2,S} {3,S} {6,S}
2 C u0 p1 c0 {1,S} {4,S}
3 C u0 p1 c0 {1,S} {5,S}
4 C u0 p1 c0 {2,S} {7,S}
5 C u0 p1 c0 {3,S} {8,S}
6 H u0 p0 c0 {1,S}
7 H u0 p0 c0 {4,S}
8 H u0 p0 c0 {5,S}


>  <multiplicity>  (4) 
2

>  <reaction>  (4) 
rxn_1353

>  <type>  (4) 
r1

>  <role_mapnums>  (4) 
{}

>  <role_mapidx>  (4) 
{}

>  <ordered_mapped_smiles>  (4) 
[CH2:1]([CH2:2][C:3]([CH2:4][CH2:5][H:8])[H:7])[H:6]

>  <level_of_theory>  (4) 
wb97xd/def2tzvp

>  <lot_method>  (4) 
wb97xd

>  <lot_basis>  (4) 
def2tzvp

>  <spin_multiplicity>  (4) 
2.0

>  <optical_isomers>  (4) 
1.0

>  <modes>  (4) 
IdealGasTranslation(mass=(63.0235, 'amu')),         NonlinearRotor(             inertia = ([17.4877, 183.017, 200.505

>  <frequency_value>  (4) 
unknown

>  <frequency_units>  (4) 
unknown

>  <frequency_list>  (4) 
unknown

>  <arkane_path>  (4) 
/home/calvin/Dropbox/PersonalFolders/Calvin/HAb_Converged/rxn_1353/output/Species/rxn_1353_CtC[CH]CtC/arkane/output.py

>  <path_exists>  (4) 
True

>  <E0_value>  (4) 
-504350.2602594301

>  <E0_units>  (4) 
kJ/mol

>  <thermo_class>  (4) 
NASA

>  <Cp0_value>  (4) 
33.257888

>  <Cp0_units>  (4) 
J/(mol*K)

>  <CpInf_value>  (4) 
182.918384

>  <CpInf_units>  (4) 
J/(mol*K)

>  <Tmin_value>  (4) 
10.0

>  <Tmin_units>  (4) 
K

>  <Tmax_value>  (4) 
3000.0

>  <Tmax_units>  (4) 
K

>  <polynomials>  (4) 
[{"name": "polynomial1", "class": "NASAPolynomial", "Tmin_value": 10.0, "Tmin_units": "K", "Tmax_value": 511.3919089489883, "Tmax_units": "K", "coeffs": [3.8659954757573973, 0.008525616172306112, 0.00010836986673963408, -2.626119315958765e-07, 1.8230598905311024e-10, -60659320.69120562, 8.776064020238547]}, {"name": "polynomial2", "class": "NASAPolynomial", "Tmin_value": 511.3919089489883, "Tmin_units": "K", "Tmax_value": 3000.0, "Tmax_units": "K", "coeffs": [5.628254952966442, 0.022649494843224656, -1.4916539685924306e-05, 4.8216558906608004e-09, -6.002662773476099e-13, -60659865.858327985, -2.111983316915381]}]

>  <H298_value>  (4) 
-120538.51368508991

>  <H298_units>  (4) 
kcal/mol

>  <S298_value>  (4) 
71.92961318485641

>  <S298_units>  (4) 
cal/(mol*K)

>  <Cp_T_value_list>  (4) 
[20.99111005886384, 24.790978026499133, 27.40139790751197, 29.433868246293493, 32.638046849521324, 34.940256474405714, 38.30245845445545, 40.20133175263048, 41.34770744760823]

>  <Cp_T_units>  (4) 
cal/(mol*K)

>  <T_list>  (4) 
[300.0, 400.0, 500.0, 600.0, 800.0, 1000.0, 1500.0, 2000.0, 2400.0]

>  <T_units>  (4) 
K

>  <yaml_path>  (4) 
/home/calvin/Dropbox/PersonalFolders/Calvin/HAb_Converged/rxn_1353/output/Species/rxn_1353_CtC[CH]CtC/rxn_1353_CtCCHCtC.yml

>  <frequencies_cm1>  (4) 
[140.92427273703998, 354.42571332116, 356.18366156308, 383.39752438624004, 580.9812929985999, 582.4370938864399, 598.9659275516799, 670.81519495484, 678.8701687352, 681.5894949219199, 955.0809192615599, 1115.22588390928, 1366.0425227222797, 2023.89971637828, 2119.4194821794795, 3149.0140591483596, 3426.6737435772397, 3430.6016591802795]

>  <ZPE_kJmol>  (4) 
135.26507637113028

>  <E_elec_kJmol>  (4) 
-504485.5253358012

>  <E0_minus_Eelec_plus_ZPE_kJmol>  (4) 
0.0

>  <rxn>  (4) 
rxn_1353

>  <species_type>  (4) 
p1

>  <species_folder>  (4) 
rxn_1353_CtC[CH]CtC

>  <frequencies_cm1_list>  (4) 
[140.92427273703998, 354.42571332116, 356.18366156308, 383.39752438624004, 580.9812929985999, 582.4370938864399, 598.9659275516799, 670.81519495484, 678.8701687352, 681.5894949219199, 955.0809192615599, 1115.22588390928, 1366.0425227222797, 2023.89971637828, 2119.4194821794795, 3149.0140591483596, 3426.6737435772397, 3430.6016591802795]

>  <E0_kJmol>  (4) 
-504350

>  <H298_kJmol>  (4) 
-504333

$$$$

     RDKit          3D

 12 11  0  0  0  0  0  0  0  0999 V2000
   -2.3791    0.4612   -0.5870 C   0  0  0  0  0  0  0  0  0  1  0  0
   -1.3422   -0.3138   -0.1893 C   0  0  0  0  0  0  0  0  0  2  0  0
   -1.4723   -1.6058    0.3589 C   0  0  0  0  0  3  0  0  0  3  0  0
   -0.3798   -2.3973    0.7671 C   0  0  0  0  0  0  0  0  0  4  0  0
   -0.4849   -3.6397    1.2956 C   0  0  0  0  0  0  0  0  0  5  0  0
   -2.2205    1.4472   -1.0017 H   0  0  0  0  0  0  0  0  0  6  0  0
   -3.4026    0.1153   -0.5011 H   0  0  0  0  0  0  0  0  0  7  0  0
   -0.3330    0.0765   -0.2952 H   0  0  0  0  0  0  0  0  0  8  0  0
   -2.4723   -2.0151    0.4735 H   0  0  0  0  0  0  0  0  0  9  0  0
    0.6117   -1.9687    0.6436 H   0  0  0  0  0  0  0  0  0 10  0  0
    0.3893   -4.2030    1.5920 H   0  0  0  0  0  0  0  0  0 11  0  0
   -1.4516   -4.1084    1.4378 H   0  0  0  0  0  0  0  0  0 12  0  0
  1  7  1  0
  1  6  1  0
  1  2  1  0
  2  8  1  0
  2  3  1  0
  3  4  1  0
  3  9  1  0
  4  5  1  0
  4 10  1  0
  5 11  1  0
  5 12  1  0
M  RAD  1   3   2
M  END
>  <rmg_smiles>  (5) 
[CH2][CH][CH][CH][CH2]

>  <rmg_adjacency_list>  (5) 
multiplicity 2
1  C u1 p0 c0 {2,S} {3,S} {7,S}
2  C u0 p0 c0 {1,S} {4,S} {6,S}
3  C u0 p0 c0 {1,S} {5,S} {8,S}
4  C u0 p0 c0 {2,S} {9,S} {10,S}
5  C u0 p0 c0 {3,S} {11,S} {12,S}
6  H u0 p0 c0 {2,S}
7  H u0 p0 c0 {1,S}
8  H u0 p0 c0 {3,S}
9  H u0 p0 c0 {4,S}
10 H u0 p0 c0 {4,S}
11 H u0 p0 c0 {5,S}
12 H u0 p0 c0 {5,S}


>  <multiplicity>  (5) 
2

>  <reaction>  (5) 
rxn_1353

>  <type>  (5) 
r2

>  <role_mapnums>  (5) 
{}

>  <role_mapidx>  (5) 
{}

>  <ordered_mapped_smiles>  (5) 
[CH:1]([CH:2]([C:3]([CH:4]([CH:5]([H:11])[H:12])[H:10])[H:9])[H:8])([H:6])[H:7]

>  <level_of_theory>  (5) 
wb97xd/def2tzvp

>  <lot_method>  (5) 
wb97xd

>  <lot_basis>  (5) 
def2tzvp

>  <spin_multiplicity>  (5) 
2.0

>  <optical_isomers>  (5) 
1.0

>  <modes>  (5) 
IdealGasTranslation(mass=(67.0548, 'amu')),         NonlinearRotor(             inertia = ([15.7789, 219.5, 235.279

>  <frequency_value>  (5) 
unknown

>  <frequency_units>  (5) 
unknown

>  <frequency_list>  (5) 
unknown

>  <arkane_path>  (5) 
/home/calvin/Dropbox/PersonalFolders/Calvin/HAb_Converged/rxn_1353/output/Species/rxn_1353_C=C[CH]C=C/arkane/output.py

>  <path_exists>  (5) 
True

>  <E0_value>  (5) 
-510855.5740845963

>  <E0_units>  (5) 
kJ/mol

>  <thermo_class>  (5) 
NASA

>  <Cp0_value>  (5) 
33.257888

>  <Cp0_units>  (5) 
J/(mol*K)

>  <CpInf_value>  (5) 
282.692048

>  <CpInf_units>  (5) 
J/(mol*K)

>  <Tmin_value>  (5) 
10.0

>  <Tmin_units>  (5) 
K

>  <Tmax_value>  (5) 
3000.0

>  <Tmax_units>  (5) 
K

>  <polynomials>  (5) 
[{"name": "polynomial1", "class": "NASAPolynomial", "Tmin_value": 10.0, "Tmin_units": "K", "Tmax_value": 495.4878151432132, "Tmax_units": "K", "coeffs": [3.9321249944863483, 0.00423695957790186, 0.0001349399275202858, -2.634227208589526e-07, 1.6274994210018014e-10, -61441731.262755215, 9.350068005934219]}, {"name": "polynomial2", "class": "NASAPolynomial", "Tmin_value": 495.4878151432132, "Tmin_units": "K", "Tmax_value": 3000.0, "Tmax_units": "K", "coeffs": [0.4670964234865551, 0.045134514665170086, -2.799782078865831e-05, 8.451471558998603e-09, -9.87511530345911e-13, -61441546.54518628, 22.032609970692913]}]

>  <H298_value>  (5) 
-122093.21999312405

>  <H298_units>  (5) 
kcal/mol

>  <S298_value>  (5) 
73.53286475276235

>  <S298_units>  (5) 
cal/(mol*K)

>  <Cp_T_value_list>  (5) 
[22.959522992008456, 28.863462234795744, 33.84135772821174, 38.08705038621403, 44.86868164007071, 49.81479641743779, 57.029271536556216, 60.72193750581066, 62.780551438557175]

>  <Cp_T_units>  (5) 
cal/(mol*K)

>  <T_list>  (5) 
[300.0, 400.0, 500.0, 600.0, 800.0, 1000.0, 1500.0, 2000.0, 2400.0]

>  <T_units>  (5) 
K

>  <yaml_path>  (5) 
/home/calvin/Dropbox/PersonalFolders/Calvin/HAb_Converged/rxn_1353/output/Species/rxn_1353_C=C[CH]C=C/rxn_1353_C=CCHC=C.yml

>  <frequencies_cm1>  (5) 
[152.447074104, 206.60012033752, 248.40632696568, 457.56783282756, 491.88902545691997, 588.7066514835999, 627.8209998663199, 832.6631719619199, 870.4315912219199, 882.064264354, 920.7322586909199, 984.0870652532399, 1007.05026416332, 1023.1327437827599, 1134.86546192448, 1248.1157838219199, 1283.31595057224, 1294.9760916455998, 1300.263670342, 1433.84713577196, 1468.49107671136, 1516.66297873116, 1589.96804702216, 3115.7572492435997, 3116.0319286563995, 3124.4645866293595, 3126.14013104744, 3128.61224576264, 3219.8676136801196, 3219.9431505186403]

>  <ZPE_kJmol>  (5) 
260.8752443523687

>  <E_elec_kJmol>  (5) 
-511116.4493289487

>  <E0_minus_Eelec_plus_ZPE_kJmol>  (5) 
0.0

>  <rxn>  (5) 
rxn_1353

>  <species_type>  (5) 
r1

>  <species_folder>  (5) 
rxn_1353_C=C[CH]C=C

>  <frequencies_cm1_list>  (5) 
[152.447074104, 206.60012033752, 248.40632696568, 457.56783282756, 491.88902545691997, 588.7066514835999, 627.8209998663199, 832.6631719619199, 870.4315912219199, 882.064264354, 920.7322586909199, 984.0870652532399, 1007.05026416332, 1023.1327437827599, 1134.86546192448, 1248.1157838219199, 1283.31595057224, 1294.9760916455998, 1300.263670342, 1433.84713577196, 1468.49107671136, 1516.66297873116, 1589.96804702216, 3115.7572492435997, 3116.0319286563995, 3124.4645866293595, 3126.14013104744, 3128.61224576264, 3219.8676136801196, 3219.9431505186403]

>  <E0_kJmol>  (5) 
-510856

>  <H298_kJmol>  (5) 
-510838

$$$$
