
     RDKit          3D

  7  6  0  0  0  0  0  0  0  0999 V2000
    0.5849    1.0830    1.1814 C   0  0  0  0  0  0  0  0  0  1  0  0
    0.3812   -0.1892    0.5726 C   0  0  0  0  0  0  0  0  0  2  0  0
   -0.4287   -0.4394   -0.8324 S   0  0  0  0  0  0  0  0  0  3  0  0
   -0.3047    1.2147    1.7926 H   0  0  0  0  0  0  0  0  0  4  0  0
    1.3707    1.1523    1.9306 H   0  0  0  0  0  0  0  0  0  5  0  0
    0.4753    1.9525    0.5389 H   0  0  0  0  0  0  0  0  0  6  0  0
    0.7514   -1.0517    1.1252 H   0  0  0  0  0  0  0  0  0  7  0  0
  1  5  1  0
  1  4  1  0
  1  6  1  0
  1  2  1  0
  2  7  1  0
  2  3  1  0
M  END
>  <rmg_smiles>  (1) 
C[CH][S]

>  <rmg_adjacency_list>  (1) 
1 S u0 p2 c0 {3,S}
2 C u0 p0 c0 {3,S} {4,S} {5,S} {6,S}
3 C u0 p0 c0 {1,S} {2,S} {7,S}
4 H u0 p0 c0 {2,S}
5 H u0 p0 c0 {2,S}
6 H u0 p0 c0 {2,S}
7 H u0 p0 c0 {3,S}


>  <multiplicity>  (1) 
1

>  <reaction>  (1) 
rxn_1986

>  <type>  (1) 
r1h

>  <role_mapnums>  (1) 
{"r1h_a": 1, "r1h_h": 4}

>  <role_mapidx>  (1) 
{"r1h_a": 0, "r1h_h": 3}

>  <ordered_mapped_smiles>  (1) 
[C:1]([CH:2]([SH:3])[H:7])([H:4])([H:5])[H:6]

>  <mol_properties>  (1) 
{"0": {"label": "donator", "atom_type": "Cs"}, "3": {"label": "d_hydrogen", "atom_type": "H0"}}

>  <level_of_theory>  (1) 
wb97xd/def2tzvp

>  <lot_method>  (1) 
wb97xd

>  <lot_basis>  (1) 
def2tzvp

>  <spin_multiplicity>  (1) 
1.0

>  <optical_isomers>  (1) 
1.0

>  <modes>  (1) 
IdealGasTranslation(mass=(60.0034, 'amu')),         NonlinearRotor(             inertia = ([10.1821, 87.4169, 94.5043

>  <frequency_value>  (1) 
unknown

>  <frequency_units>  (1) 
unknown

>  <frequency_list>  (1) 
unknown

>  <arkane_path>  (1) 
/home/calvin/Dropbox/PersonalFolders/Calvin/HAb_Converged/rxn_1986/output/Species/rxn_1986_CC=S/arkane/output.py

>  <path_exists>  (1) 
True

>  <E0_value>  (1) 
-1251692.87971102

>  <E0_units>  (1) 
kJ/mol

>  <thermo_class>  (1) 
NASA

>  <Cp0_value>  (1) 
33.257888

>  <Cp0_units>  (1) 
J/(mol*K)

>  <CpInf_value>  (1) 
157.97496800000002

>  <CpInf_units>  (1) 
J/(mol*K)

>  <Tmin_value>  (1) 
10.0

>  <Tmin_units>  (1) 
K

>  <Tmax_value>  (1) 
3000.0

>  <Tmax_units>  (1) 
K

>  <polynomials>  (1) 
[{"name": "polynomial1", "class": "NASAPolynomial", "Tmin_value": 10.0, "Tmin_units": "K", "Tmax_value": 485.39622899743466, "Tmax_units": "K", "coeffs": [3.975940530572461, 0.0013748720414305338, 5.132788135128821e-05, -8.432386137464513e-08, 4.4867749425835864e-11, -150543879.09878448, 8.090912724756667]}, {"name": "polynomial2", "class": "NASAPolynomial", "Tmin_value": 485.39622899743466, "Tmin_units": "K", "Tmax_value": 3000.0, "Tmax_units": "K", "coeffs": [1.4651349812966712, 0.022068299956711855, -1.2628378415974456e-05, 3.5280372570941277e-09, -3.855767973354191e-13, -150543635.38297567, 18.3889911716905]}]

>  <H298_value>  (1) 
-299158.68811573734

>  <H298_units>  (1) 
kcal/mol

>  <S298_value>  (1) 
65.13190747939298

>  <S298_units>  (1) 
cal/(mol*K)

>  <Cp_T_value_list>  (1) 
[14.098427248842778, 16.871855394466547, 19.393339934655586, 21.604877323173096, 25.209772375709086, 27.915317068508738, 32.01166447471848, 34.0672583894089, 35.111294878115146]

>  <Cp_T_units>  (1) 
cal/(mol*K)

>  <T_list>  (1) 
[300.0, 400.0, 500.0, 600.0, 800.0, 1000.0, 1500.0, 2000.0, 2400.0]

>  <T_units>  (1) 
K

>  <yaml_path>  (1) 
/home/calvin/Dropbox/PersonalFolders/Calvin/HAb_Converged/rxn_1986/output/Species/rxn_1986_CC=S/rxn_1986_CC=S.yml

>  <frequencies_cm1>  (1) 
[170.46604358368, 396.01217641908, 770.63369356636, 837.4425937446399, 1045.2719044544401, 1080.9115582652398, 1167.33943550276, 1373.61680753024, 1381.75418513444, 1457.57943703788, 1469.4661886268, 3002.45885844892, 3059.70204807644, 3060.7801647716797, 3125.5770382512]

>  <ZPE_kJmol>  (1) 
139.95721324395197

>  <E_elec_kJmol>  (1) 
-1251832.836924264

>  <E0_minus_Eelec_plus_ZPE_kJmol>  (1) 
0.0

>  <rxn>  (1) 
rxn_1986

>  <species_type>  (1) 
r1

>  <species_folder>  (1) 
rxn_1986_CC=S

>  <frequencies_cm1_list>  (1) 
[170.46604358368, 396.01217641908, 770.63369356636, 837.4425937446399, 1045.2719044544401, 1080.9115582652398, 1167.33943550276, 1373.61680753024, 1381.75418513444, 1457.57943703788, 1469.4661886268, 3002.45885844892, 3059.70204807644, 3060.7801647716797, 3125.5770382512]

>  <E0_kJmol>  (1) 
-1.25169e+06

>  <H298_kJmol>  (1) 
-1.25168e+06

$$$$

     RDKit          3D

 11 10  0  0  0  0  0  0  0  0999 V2000
    0.9779    0.6425    1.4176 C   0  0  0  0  0  0  0  0  0  1  0  0
    0.4559    0.1410    0.0881 C   0  0  0  0  0  0  0  0  0  2  0  0
   -0.2619    1.0737   -0.7140 C   0  0  0  0  0  2  0  0  0  3  0  0
   -0.8127    1.8594   -1.4363 C   0  0  0  0  0  2  0  0  0  4  0  0
   -0.2281   -1.4969    0.1957 S   0  0  0  0  0  0  0  0  0  5  0  0
    0.1552    0.8546    2.1032 H   0  0  0  0  0  0  0  0  0  6  0  0
    1.6309   -0.1014    1.8760 H   0  0  0  0  0  0  0  0  0  7  0  0
    1.5439    1.5617    1.2676 H   0  0  0  0  0  0  0  0  0  8  0  0
   -1.3125    2.5515   -2.0707 H   0  0  0  0  0  0  0  0  0  9  0  0
   -0.6552   -1.5728   -1.0719 H   0  0  0  0  0  0  0  0  0 10  0  0
    1.3652   -0.0195   -0.4911 H   0  0  0  0  0  0  0  0  0 11  0  0
  1  8  1  0
  1  7  1  0
  1  6  1  0
  1  2  1  0
  2 11  1  0
  2  5  1  0
  2  3  1  0
  3  4  1  0
  4  9  1  0
  5 10  1  0
M  RAD  2   3   3   4   3
M  END
>  <rmg_smiles>  (2) 
[CH][C]C(S)C

>  <rmg_adjacency_list>  (2) 
1  S u0 p2 c0 {2,S} {10,S}
2  C u0 p0 c0 {1,S} {3,S} {4,S} {6,S}
3  C u0 p0 c0 {2,S} {7,S} {8,S} {9,S}
4  C u0 p1 c0 {2,S} {5,S}
5  C u0 p1 c0 {4,S} {11,S}
6  H u0 p0 c0 {2,S}
7  H u0 p0 c0 {3,S}
8  H u0 p0 c0 {3,S}
9  H u0 p0 c0 {3,S}
10 H u0 p0 c0 {1,S}
11 H u0 p0 c0 {5,S}


>  <multiplicity>  (2) 
1

>  <reaction>  (2) 
rxn_1986

>  <type>  (2) 
r2h

>  <role_mapnums>  (2) 
{"r2h_a": 2, "r2h_h": 11}

>  <role_mapidx>  (2) 
{"r2h_a": 1, "r2h_h": 10}

>  <ordered_mapped_smiles>  (2) 
[C:1]([C:2]([C:3][C:4][H:9])([S:5][H:10])[H:11])([H:6])([H:7])[H:8]

>  <mol_properties>  (2) 
{"1": {"label": "acceptor", "atom_type": "Cs"}, "10": {"label": "a_hydrogen", "atom_type": "H0"}}

>  <level_of_theory>  (2) 
wb97xd/def2tzvp

>  <lot_method>  (2) 
wb97xd

>  <lot_basis>  (2) 
def2tzvp

>  <spin_multiplicity>  (2) 
1.0

>  <optical_isomers>  (2) 
2.0

>  <modes>  (2) 
IdealGasTranslation(mass=(86.019, 'amu')),         NonlinearRotor(             inertia = ([87.6457, 170.909, 240.546

>  <frequency_value>  (2) 
unknown

>  <frequency_units>  (2) 
unknown

>  <frequency_list>  (2) 
unknown

>  <arkane_path>  (2) 
/home/calvin/Dropbox/PersonalFolders/Calvin/HAb_Converged/rxn_1986/output/Species/rxn_1986_CC[CtC]S/arkane/output.py

>  <path_exists>  (2) 
True

>  <E0_value>  (2) 
-1454747.9869848297

>  <E0_units>  (2) 
kJ/mol

>  <thermo_class>  (2) 
NASA

>  <Cp0_value>  (2) 
33.257888

>  <Cp0_units>  (2) 
J/(mol*K)

>  <CpInf_value>  (2) 
257.748632

>  <CpInf_units>  (2) 
J/(mol*K)

>  <Tmin_value>  (2) 
10.0

>  <Tmin_units>  (2) 
K

>  <Tmax_value>  (2) 
3000.0

>  <Tmax_units>  (2) 
K

>  <polynomials>  (2) 
[{"name": "polynomial1", "class": "NASAPolynomial", "Tmin_value": 10.0, "Tmin_units": "K", "Tmax_value": 390.9140632823983, "Tmax_units": "K", "coeffs": [3.858713419231629, 0.010564997140702595, 0.00016329814740577924, -4.5849893030170754e-07, 3.9198883509043327e-10, -174965770.0665913, 10.944004943270295]}, {"name": "polynomial2", "class": "NASAPolynomial", "Tmin_value": 390.9140632823983, "Tmin_units": "K", "Tmax_value": 3000.0, "Tmax_units": "K", "coeffs": [3.5910622176950087, 0.03608103984670987, -2.2011240144551834e-05, 6.581334463032912e-09, -7.656686735052077e-13, -174965923.17532238, 9.75787740899601]}]

>  <H298_value>  (2) 
-347688.46609237033

>  <H298_units>  (2) 
kcal/mol

>  <S298_value>  (2) 
79.59735907954581

>  <S298_units>  (2) 
cal/(mol*K)

>  <Cp_T_value_list>  (2) 
[24.881185185807908, 29.6159028918133, 33.59091324770937, 37.0375095709953, 42.57535430939504, 46.65270848395564, 52.70695189298071, 55.8567148263336, 57.58553478406499]

>  <Cp_T_units>  (2) 
cal/(mol*K)

>  <T_list>  (2) 
[300.0, 400.0, 500.0, 600.0, 800.0, 1000.0, 1500.0, 2000.0, 2400.0]

>  <T_units>  (2) 
K

>  <yaml_path>  (2) 
/home/calvin/Dropbox/PersonalFolders/Calvin/HAb_Converged/rxn_1986/output/Species/rxn_1986_CC[CtC]S/rxn_1986_CCCtCS.yml

>  <frequencies_cm1>  (2) 
[163.65399414624, 200.12455318076, 233.74531330747996, 265.924006517, 317.85214950683996, 472.54472781047997, 536.37335635988, 646.5678697899199, 685.57234640752, 689.34918833352, 869.1543319524001, 892.7836284385199, 1026.9988565179199, 1098.10648950652, 1109.5743549909198, 1265.9630786685998, 1311.01736935312, 1401.32509329644, 1474.4310190131598, 1479.8628044012798, 2220.3023635156, 2695.0513936138, 3023.47870051344, 3043.8255780166, 3101.2679102183997, 3116.5263515994397, 3437.4068416324]

>  <ZPE_kJmol>  (2) 
219.98604213251892

>  <E_elec_kJmol>  (2) 
-1454967.9730269625

>  <E0_minus_Eelec_plus_ZPE_kJmol>  (2) 
0.0

>  <rxn>  (2) 
rxn_1986

>  <species_type>  (2) 
p0

>  <species_folder>  (2) 
rxn_1986_CC[CtC]S

>  <frequencies_cm1_list>  (2) 
[163.65399414624, 200.12455318076, 233.74531330747996, 265.924006517, 317.85214950683996, 472.54472781047997, 536.37335635988, 646.5678697899199, 685.57234640752, 689.34918833352, 869.1543319524001, 892.7836284385199, 1026.9988565179199, 1098.10648950652, 1109.5743549909198, 1265.9630786685998, 1311.01736935312, 1401.32509329644, 1474.4310190131598, 1479.8628044012798, 2220.3023635156, 2695.0513936138, 3023.47870051344, 3043.8255780166, 3101.2679102183997, 3116.5263515994397, 3437.4068416324]

>  <E0_kJmol>  (2) 
-1.45475e+06

>  <H298_kJmol>  (2) 
-1.45473e+06

$$$$

     RDKit          3D

 17 15  0  0  0  0  0  0  0  0999 V2000
   -0.0657    1.1682    2.6084 C   0  0  0  0  0  0  0  0  0  1  0  0
   -0.5877    0.6667    1.2789 C   0  0  0  0  0  3  0  0  0  2  0  0
   -1.3055    1.5994    0.4768 C   0  0  0  0  0  0  0  0  0  3  0  0
   -1.8563    2.3851   -0.2454 C   0  0  0  0  0  0  0  0  0  4  0  0
   -1.2717   -0.9712    1.3865 S   0  0  0  0  0  0  0  0  0  5  0  0
   -0.8884    1.3803    3.2941 H   0  0  0  0  0  0  0  0  0  6  0  0
    0.5873    0.4243    3.0669 H   0  0  0  0  0  0  0  0  0  7  0  0
    0.5003    2.0873    2.4585 H   0  0  0  0  0  0  0  0  0  8  0  0
   -2.3561    3.0772   -0.8799 H   0  0  0  0  0  0  0  0  0  9  0  0
   -1.6988   -1.0471    0.1189 H   0  0  0  0  0  0  0  0  0 10  0  0
    1.6369    0.3049   -0.1924 C   0  0  0  0  0  0  0  0  0 11  0  0
    1.4333   -0.9673   -0.8013 C   0  0  0  0  0  0  0  0  0 12  0  0
    0.6233   -1.2175   -2.2063 S   0  0  0  0  0  0  0  0  0 13  0  0
    0.5519    0.4655    0.5531 H   0  0  0  0  0  0  0  0  0 14  0  0
    2.4227    0.3741    0.5567 H   0  0  0  0  0  0  0  0  0 15  0  0
    1.5273    1.1744   -0.8350 H   0  0  0  0  0  0  0  0  0 16  0  0
    1.8034   -1.8298   -0.2487 H   0  0  0  0  0  0  0  0  0 17  0  0
  1  8  1  0
  1  7  1  0
  1  6  1  0
  1  2  1  0
  2  5  1  0
  2  3  1  0
  3  4  1  0
  4  9  1  0
  5 10  1  0
 11 14  1  0
 11 12  1  0
 11 16  1  0
 11 15  1  0
 12 17  1  0
 12 13  1  0
M  RAD  1   2   2
M  END
>  <rmg_smiles>  (3) 
[CH][C][C](S)C.C[CH][S]

>  <rmg_adjacency_list>  (3) 
multiplicity 2
1  S u0 p2 c0 {5,S} {16,S}
2  S u0 p2 c0 {6,S}
3  C u0 p0 c0 {5,S} {9,S} {10,S} {11,S}
4  C u0 p0 c0 {6,S} {12,S} {13,S} {14,S}
5  C u1 p0 c0 {1,S} {3,S} {7,S}
6  C u0 p0 c0 {2,S} {4,S} {15,S}
7  C u0 p1 c0 {5,S} {8,S}
8  C u0 p1 c0 {7,S} {17,S}
9  H u0 p0 c0 {3,S}
10 H u0 p0 c0 {3,S}
11 H u0 p0 c0 {3,S}
12 H u0 p0 c0 {4,S}
13 H u0 p0 c0 {4,S}
14 H u0 p0 c0 {4,S}
15 H u0 p0 c0 {6,S}
16 H u0 p0 c0 {1,S}
17 H u0 p0 c0 {8,S}


>  <multiplicity>  (3) 
2

>  <reaction>  (3) 
rxn_1986

>  <type>  (3) 
ts

>  <role_mapnums>  (3) 
{"*2": 14, "*1": 11, "*3": 2, "*0": 12, "*4": 5}

>  <role_mapidx>  (3) 
{"*2": 13, "*1": 10, "*3": 1, "*0": 11, "*4": 4}

>  <ordered_mapped_smiles>  (3) 
[C:1]([C:2]([CH2:3][CH2:4][H:9])[S:5][H:10])([H:6])([H:7])[H:8].[C:11]([CH:12]([SH:13])[H:17])([H:14])([H:15])[H:16]

>  <mol_properties>  (3) 
{"1": {"label": "*3", "atom_type": "Cs"}, "4": {"label": "*4", "atom_type": "S2s"}, "10": {"label": "*1", "atom_type": "Cs"}, "11": {"label": "*0", "atom_type": "Cs"}, "13": {"label": "*2", "atom_type": "H0"}}

>  <level_of_theory>  (3) 
wb97xd/def2tzvp

>  <lot_method>  (3) 
wb97xd

>  <lot_basis>  (3) 
def2tzvp

>  <spin_multiplicity>  (3) 
2.0

>  <optical_isomers>  (3) 
2.0

>  <modes>  (3) 
IdealGasTranslation(mass=(145.015, 'amu')),         NonlinearRotor(             inertia = ([294.959, 621.126, 668.765

>  <frequency_value>  (3) 
-1637.75

>  <frequency_units>  (3) 
cm^-1

>  <frequency_list>  (3) 
unknown

>  <arkane_path>  (3) 
/home/calvin/Dropbox/PersonalFolders/Calvin/HAb_Converged/rxn_1986/output/rxns/TS0/arkane/output.py

>  <path_exists>  (3) 
True

>  <E0_value>  (3) 
-2704730.0

>  <E0_units>  (3) 
kJ/mol

>  <thermo_class>  (3) 
unknown

>  <Cp0_value>  (3) 
unknown

>  <Cp0_units>  (3) 
unknown

>  <CpInf_value>  (3) 
unknown

>  <CpInf_units>  (3) 
unknown

>  <Tmin_value>  (3) 
unknown

>  <Tmin_units>  (3) 
unknown

>  <Tmax_value>  (3) 
unknown

>  <Tmax_units>  (3) 
unknown

>  <polynomials>  (3) 
unknown

>  <H298_value>  (3) 
unknown

>  <H298_units>  (3) 
unknown

>  <S298_value>  (3) 
unknown

>  <S298_units>  (3) 
unknown

>  <Cp_T_value_list>  (3) 
unknown

>  <Cp_T_units>  (3) 
unknown

>  <T_list>  (3) 
unknown

>  <T_units>  (3) 
unknown

>  <yaml_path>  (3) 
unknown

>  <frequencies_cm1>  (3) 
unknown

>  <ZPE_kJmol>  (3) 
unknown

>  <E_elec_kJmol>  (3) 
unknown

>  <E0_minus_Eelec_plus_ZPE_kJmol>  (3) 
unknown

>  <rxn>  (3) 
unknown

>  <species_type>  (3) 
unknown

>  <species_folder>  (3) 
unknown

>  <frequencies_cm1_list>  (3) 
[]

>  <ts_imag_freq_cm1>  (3) 
-1657.6425

>  <ts_freq_out_path>  (3) 
/home/calvin/Dropbox/PersonalFolders/Calvin/HAb_Converged/rxn_1986/output/rxns/TS0/geometry/freq.out

>  <E0_kJmol>  (3) 
-2.70473e+06

>  <H298_kJmol>  (3) 
unknown

$$$$

     RDKit          3D

  6  5  0  0  0  0  0  0  0  0999 V2000
   -0.7309   -0.0987    0.0327 C   0  0  0  0  0  0  0  0  0  1  0  0
    0.6208    0.0065   -0.0096 C   0  0  0  0  0  0  0  0  0  2  0  0
    1.6572   -1.2972    0.2837 S   0  0  0  0  0  1  0  0  0  3  0  0
   -1.3651    0.7588   -0.1608 H   0  0  0  0  0  0  0  0  0  4  0  0
   -1.2044   -1.0453    0.2616 H   0  0  0  0  0  0  0  0  0  5  0  0
    1.0609    0.9725   -0.2426 H   0  0  0  0  0  0  0  0  0  6  0  0
  1  5  1  0
  1  4  1  0
  1  2  1  0
  2  3  1  0
  2  6  1  0
M  RAD  1   3   2
M  END
>  <rmg_smiles>  (4) 
[CH2][CH][S]

>  <rmg_adjacency_list>  (4) 
multiplicity 2
1 S u1 p2 c0 {3,S}
2 C u0 p0 c0 {3,S} {4,S} {5,S}
3 C u0 p0 c0 {1,S} {2,S} {6,S}
4 H u0 p0 c0 {2,S}
5 H u0 p0 c0 {2,S}
6 H u0 p0 c0 {3,S}


>  <multiplicity>  (4) 
2

>  <reaction>  (4) 
rxn_1986

>  <type>  (4) 
r1

>  <role_mapnums>  (4) 
{}

>  <role_mapidx>  (4) 
{}

>  <ordered_mapped_smiles>  (4) 
[CH:1]([CH:2]([S:3])[H:6])([H:4])[H:5]

>  <level_of_theory>  (4) 
wb97xd/def2tzvp

>  <lot_method>  (4) 
wb97xd

>  <lot_basis>  (4) 
def2tzvp

>  <spin_multiplicity>  (4) 
2.0

>  <optical_isomers>  (4) 
1.0

>  <modes>  (4) 
IdealGasTranslation(mass=(58.9956, 'amu')),         NonlinearRotor(             inertia = ([8.83476, 79.9763, 88.811

>  <frequency_value>  (4) 
unknown

>  <frequency_units>  (4) 
unknown

>  <frequency_list>  (4) 
unknown

>  <arkane_path>  (4) 
/home/calvin/Dropbox/PersonalFolders/Calvin/HAb_Converged/rxn_1986/output/Species/rxn_1986_[CH2]C=S/arkane/output.py

>  <path_exists>  (4) 
True

>  <E0_value>  (4) 
-1250043.110807286

>  <E0_units>  (4) 
kJ/mol

>  <thermo_class>  (4) 
NASA

>  <Cp0_value>  (4) 
33.257888

>  <Cp0_units>  (4) 
J/(mol*K)

>  <CpInf_value>  (4) 
133.031552

>  <CpInf_units>  (4) 
J/(mol*K)

>  <Tmin_value>  (4) 
10.0

>  <Tmin_units>  (4) 
K

>  <Tmax_value>  (4) 
3000.0

>  <Tmax_units>  (4) 
K

>  <polynomials>  (4) 
[{"name": "polynomial1", "class": "NASAPolynomial", "Tmin_value": 10.0, "Tmin_units": "K", "Tmax_value": 532.7243167618623, "Tmax_units": "K", "coeffs": [4.067075979396691, -0.006403539850264782, 8.807291251076341e-05, -1.576667854691463e-07, 9.235973025607611e-11, -150345458.46382707, 8.421967934724249]}, {"name": "polynomial2", "class": "NASAPolynomial", "Tmin_value": 532.7243167618623, "Tmin_units": "K", "Tmax_value": 3000.0, "Tmax_units": "K", "coeffs": [2.1262272561499946, 0.018548778063449952, -1.1410896338021972e-05, 3.4033850580240633e-09, -3.915343193556974e-13, -150345398.95630276, 15.180861356183497]}]

>  <H298_value>  (4) 
-298764.61657121626

>  <H298_units>  (4) 
kcal/mol

>  <S298_value>  (4) 
64.35790710333508

>  <S298_units>  (4) 
cal/(mol*K)

>  <Cp_T_value_list>  (4) 
[13.043400995126946, 15.641423321427808, 17.780866282053577, 19.53813430705424, 22.345017795429637, 24.394866961547805, 27.38203567367369, 28.89940637643697, 29.75793587094202]

>  <Cp_T_units>  (4) 
cal/(mol*K)

>  <T_list>  (4) 
[300.0, 400.0, 500.0, 600.0, 800.0, 1000.0, 1500.0, 2000.0, 2400.0]

>  <T_units>  (4) 
K

>  <yaml_path>  (4) 
/home/calvin/Dropbox/PersonalFolders/Calvin/HAb_Converged/rxn_1986/output/Species/rxn_1986_[CH2]C=S/rxn_1986_CH2C=S.yml

>  <frequencies_cm1>  (4) 
[401.01820871736, 475.21598509996, 781.12644713532, 939.1495133191601, 974.6449604382399, 1045.93800203048, 1282.84212858516, 1350.7016775174, 1511.6912813594797, 3110.64821216552, 3122.0680087526794, 3219.55859934072]

>  <ZPE_kJmol>  (4) 
108.94755150830215

>  <E_elec_kJmol>  (4) 
-1250152.0583587943

>  <E0_minus_Eelec_plus_ZPE_kJmol>  (4) 
0.0

>  <rxn>  (4) 
rxn_1986

>  <species_type>  (4) 
p1

>  <species_folder>  (4) 
rxn_1986_[CH2]C=S

>  <frequencies_cm1_list>  (4) 
[401.01820871736, 475.21598509996, 781.12644713532, 939.1495133191601, 974.6449604382399, 1045.93800203048, 1282.84212858516, 1350.7016775174, 1511.6912813594797, 3110.64821216552, 3122.0680087526794, 3219.55859934072]

>  <E0_kJmol>  (4) 
-1.25004e+06

>  <H298_kJmol>  (4) 
-1.25003e+06

$$$$

     RDKit          3D

 10  9  0  0  0  0  0  0  0  0999 V2000
   -1.2648    0.1959    0.8197 C   0  0  0  0  0  0  0  0  0  1  0  0
   -0.2805    0.0995   -0.3030 C   0  0  0  0  0  3  0  0  0  2  0  0
   -0.0444    1.1347   -1.1797 C   0  0  0  0  0  0  0  0  0  3  0  0
    0.1640    2.0467   -1.9525 C   0  0  0  0  0  0  0  0  0  4  0  0
    0.5686   -1.4168   -0.4488 S   0  0  0  0  0  0  0  0  0  5  0  0
   -2.0466   -0.5638    0.7258 H   0  0  0  0  0  0  0  0  0  6  0  0
   -0.7765    0.0454    1.7871 H   0  0  0  0  0  0  0  0  0  7  0  0
   -1.7371    1.1762    0.8222 H   0  0  0  0  0  0  0  0  0  8  0  0
    0.3433    2.8484   -2.6273 H   0  0  0  0  0  0  0  0  0  9  0  0
    1.3075   -1.0953   -1.5176 H   0  0  0  0  0  0  0  0  0 10  0  0
  1  8  1  0
  1  7  1  0
  1  6  1  0
  1  2  1  0
  2  5  1  0
  2  3  1  0
  3  4  1  0
  4  9  1  0
  5 10  1  0
M  RAD  1   2   2
M  END
>  <rmg_smiles>  (5) 
[CH][C][C](S)C

>  <rmg_adjacency_list>  (5) 
multiplicity 2
1  S u0 p2 c0 {3,S} {9,S}
2  C u0 p0 c0 {3,S} {6,S} {7,S} {8,S}
3  C u1 p0 c0 {1,S} {2,S} {4,S}
4  C u0 p1 c0 {3,S} {5,S}
5  C u0 p1 c0 {4,S} {10,S}
6  H u0 p0 c0 {2,S}
7  H u0 p0 c0 {2,S}
8  H u0 p0 c0 {2,S}
9  H u0 p0 c0 {1,S}
10 H u0 p0 c0 {5,S}


>  <multiplicity>  (5) 
2

>  <reaction>  (5) 
rxn_1986

>  <type>  (5) 
r2

>  <role_mapnums>  (5) 
{}

>  <role_mapidx>  (5) 
{}

>  <ordered_mapped_smiles>  (5) 
[C:1]([C:2]([CH2:3][CH2:4][H:9])[S:5][H:10])([H:6])([H:7])[H:8]

>  <level_of_theory>  (5) 
wb97xd/def2tzvp

>  <lot_method>  (5) 
wb97xd

>  <lot_basis>  (5) 
def2tzvp

>  <spin_multiplicity>  (5) 
2.0

>  <optical_isomers>  (5) 
1.0

>  <modes>  (5) 
IdealGasTranslation(mass=(85.0112, 'amu')),         NonlinearRotor(             inertia = ([82.4047, 167.495, 246.765

>  <frequency_value>  (5) 
unknown

>  <frequency_units>  (5) 
unknown

>  <frequency_list>  (5) 
unknown

>  <arkane_path>  (5) 
/home/calvin/Dropbox/PersonalFolders/Calvin/HAb_Converged/rxn_1986/output/Species/rxn_1986_C[C][CtC]S/arkane/output.py

>  <path_exists>  (5) 
True

>  <E0_value>  (5) 
-1453105.3612422314

>  <E0_units>  (5) 
kJ/mol

>  <thermo_class>  (5) 
NASA

>  <Cp0_value>  (5) 
33.257888

>  <Cp0_units>  (5) 
J/(mol*K)

>  <CpInf_value>  (5) 
232.805216

>  <CpInf_units>  (5) 
J/(mol*K)

>  <Tmin_value>  (5) 
10.0

>  <Tmin_units>  (5) 
K

>  <Tmax_value>  (5) 
3000.0

>  <Tmax_units>  (5) 
K

>  <polynomials>  (5) 
[{"name": "polynomial1", "class": "NASAPolynomial", "Tmin_value": 10.0, "Tmin_units": "K", "Tmax_value": 273.1683789679481, "Tmax_units": "K", "coeffs": [3.7753814811155935, 0.021657527899277617, 0.00015828869971507256, -7.276144873974002e-07, 9.437697922519883e-10, -174768209.8714672, 11.90943942573215]}, {"name": "polynomial2", "class": "NASAPolynomial", "Tmin_value": 273.1683789679481, "Tmin_units": "K", "Tmax_value": 3000.0, "Tmax_units": "K", "coeffs": [4.594318769947566, 0.03191679788121869, -2.0228805295381523e-05, 6.243366588572276e-09, -7.431112905857346e-13, -174768337.63240626, 7.5016838847910154]}]

>  <H298_value>  (5) 
-347295.5706324715

>  <H298_units>  (5) 
kcal/mol

>  <S298_value>  (5) 
84.1434158183064

>  <S298_units>  (5) 
cal/(mol*K)

>  <Cp_T_value_list>  (5) 
[24.862571181723663, 28.82439231648624, 32.25135350920243, 35.2019473835623, 39.890283084922174, 43.28645806188217, 48.21770771757209, 50.81256302732231, 52.32387398967946]

>  <Cp_T_units>  (5) 
cal/(mol*K)

>  <T_list>  (5) 
[300.0, 400.0, 500.0, 600.0, 800.0, 1000.0, 1500.0, 2000.0, 2400.0]

>  <T_units>  (5) 
K

>  <yaml_path>  (5) 
/home/calvin/Dropbox/PersonalFolders/Calvin/HAb_Converged/rxn_1986/output/Species/rxn_1986_C[C][CtC]S/rxn_1986_CCCtCS.yml

>  <frequencies_cm1>  (5) 
[28.99241202104, 167.81538725015997, 203.42757311967998, 241.77968613187997, 295.34217162787996, 453.06309045763993, 470.87605037772, 523.76557131236, 631.26822649696, 687.0968171485599, 897.5561832359199, 949.84827644772, 1016.29322640404, 1147.0200259408798, 1305.15983087516, 1398.8735795372, 1461.4936186702798, 1475.6670763707598, 2045.4963852096796, 2715.8240242068, 2997.8579782845195, 3050.7749671604397, 3117.61133528, 3430.2308419729998]

>  <ZPE_kJmol>  (5) 
183.7053917951971

>  <E_elec_kJmol>  (5) 
-1453289.0666340266

>  <E0_minus_Eelec_plus_ZPE_kJmol>  (5) 
0.0

>  <rxn>  (5) 
rxn_1986

>  <species_type>  (5) 
r0

>  <species_folder>  (5) 
rxn_1986_C[C][CtC]S

>  <frequencies_cm1_list>  (5) 
[28.99241202104, 167.81538725015997, 203.42757311967998, 241.77968613187997, 295.34217162787996, 453.06309045763993, 470.87605037772, 523.76557131236, 631.26822649696, 687.0968171485599, 897.5561832359199, 949.84827644772, 1016.29322640404, 1147.0200259408798, 1305.15983087516, 1398.8735795372, 1461.4936186702798, 1475.6670763707598, 2045.4963852096796, 2715.8240242068, 2997.8579782845195, 3050.7749671604397, 3117.61133528, 3430.2308419729998]

>  <E0_kJmol>  (5) 
-1.45311e+06

>  <H298_kJmol>  (5) 
-1.45308e+06

$$$$
