
     RDKit          3D

 13 12  0  0  0  0  0  0  0  0999 V2000
    0.4283    0.1798   -1.8082 C   0  0  0  0  0  0  0  0  0  1  0  0
    0.5047    0.1496   -0.2960 C   0  0  0  0  0  0  0  0  0  2  0  0
    0.3237    1.5158    0.3351 C   0  0  0  0  0  0  0  0  0  3  0  0
   -0.5372   -0.7697    0.0901 O   0  0  0  0  0  0  0  0  0  4  0  0
   -0.5420   -0.9647    1.4409 O   0  0  0  0  0  0  0  0  0  5  0  0
    1.2382    0.7938   -2.2028 H   0  0  0  0  0  0  0  0  0  6  0  0
    0.5209   -0.8239   -2.2230 H   0  0  0  0  0  0  0  0  0  7  0  0
   -0.5215    0.6087   -2.1314 H   0  0  0  0  0  0  0  0  0  8  0  0
    1.4517   -0.2919    0.0295 H   0  0  0  0  0  0  0  0  0  9  0  0
   -0.6473    1.9377    0.0708 H   0  0  0  0  0  0  0  0  0 10  0  0
    0.4078    1.4615    1.4201 H   0  0  0  0  0  0  0  0  0 11  0  0
    1.1074    2.1830   -0.0269 H   0  0  0  0  0  0  0  0  0 12  0  0
   -1.2578   -0.4155    1.7690 H   0  0  0  0  0  0  0  0  0 13  0  0
  1  8  1  0
  1  7  1  0
  1  6  1  0
  1  2  1  0
  2  4  1  0
  2  9  1  0
  2  3  1  0
  3 11  1  0
  3 12  1  0
  3 10  1  0
  4  5  1  0
  5 13  1  0
M  END
>  <rmg_smiles>  (1) 
CC(C)OO

>  <rmg_adjacency_list>  (1) 
1  O u0 p2 c0 {2,S} {3,S}
2  O u0 p2 c0 {1,S} {13,S}
3  C u0 p0 c0 {1,S} {4,S} {5,S} {6,S}
4  C u0 p0 c0 {3,S} {7,S} {8,S} {9,S}
5  C u0 p0 c0 {3,S} {10,S} {11,S} {12,S}
6  H u0 p0 c0 {3,S}
7  H u0 p0 c0 {4,S}
8  H u0 p0 c0 {4,S}
9  H u0 p0 c0 {4,S}
10 H u0 p0 c0 {5,S}
11 H u0 p0 c0 {5,S}
12 H u0 p0 c0 {5,S}
13 H u0 p0 c0 {2,S}


>  <multiplicity>  (1) 
1

>  <reaction>  (1) 
rxn_461

>  <type>  (1) 
r1h

>  <role_mapnums>  (1) 
{"r1h_a": 5, "r1h_h": 13}

>  <role_mapidx>  (1) 
{"r1h_a": 4, "r1h_h": 12}

>  <ordered_mapped_smiles>  (1) 
[C:1]([C:2]([C:3]([H:10])([H:11])[H:12])([O:4][O:5][H:13])[H:9])([H:6])([H:7])[H:8]

>  <mol_properties>  (1) 
{"4": {"label": "donator", "atom_type": "O2s"}, "12": {"label": "d_hydrogen", "atom_type": "H0"}}

>  <level_of_theory>  (1) 
wb97xd/def2tzvp

>  <lot_method>  (1) 
wb97xd

>  <lot_basis>  (1) 
def2tzvp

>  <spin_multiplicity>  (1) 
1.0

>  <optical_isomers>  (1) 
2.0

>  <modes>  (1) 
IdealGasTranslation(mass=(76.0524, 'amu')),         NonlinearRotor(             inertia = ([64.1047, 129.852, 175.955

>  <frequency_value>  (1) 
unknown

>  <frequency_units>  (1) 
unknown

>  <frequency_list>  (1) 
unknown

>  <arkane_path>  (1) 
/home/calvin/Dropbox/PersonalFolders/Calvin/HAb_Converged/rxn_461/output/Species/rxn_461_CC[C]OO/arkane/output.py

>  <path_exists>  (1) 
True

>  <E0_value>  (1) 
-707325.5666596143

>  <E0_units>  (1) 
kJ/mol

>  <thermo_class>  (1) 
NASA

>  <Cp0_value>  (1) 
33.257888

>  <Cp0_units>  (1) 
J/(mol*K)

>  <CpInf_value>  (1) 
307.635464

>  <CpInf_units>  (1) 
J/(mol*K)

>  <Tmin_value>  (1) 
10.0

>  <Tmin_units>  (1) 
K

>  <Tmax_value>  (1) 
3000.0

>  <Tmax_units>  (1) 
K

>  <polynomials>  (1) 
[{"name": "polynomial1", "class": "NASAPolynomial", "Tmin_value": 10.0, "Tmin_units": "K", "Tmax_value": 373.3983625194583, "Tmax_units": "K", "coeffs": [3.723173860561931, 0.02235433983077, 6.041976750016539e-05, -1.4464068510593587e-07, 1.0056348969149726e-10, -85071610.76002444, 10.433324162586633]}, {"name": "polynomial2", "class": "NASAPolynomial", "Tmin_value": 373.3983625194583, "Tmin_units": "K", "Tmax_value": 3000.0, "Tmax_units": "K", "coeffs": [1.7545939219209903, 0.04344251694118376, -2.4294448018531906e-05, 6.6077982562282255e-09, -7.009656554179919e-13, -85071463.74657878, 17.991324991001278]}]

>  <H298_value>  (1) 
-169050.09429787137

>  <H298_units>  (1) 
kcal/mol

>  <S298_value>  (1) 
79.31200709181388

>  <S298_units>  (1) 
cal/(mol*K)

>  <Cp_T_value_list>  (1) 
[25.3895849021321, 31.09867562713878, 36.13616746725511, 40.559961898210354, 47.80471237867219, 53.276003636416135, 61.6203758028639, 65.7939655527096, 67.90375818381932]

>  <Cp_T_units>  (1) 
cal/(mol*K)

>  <T_list>  (1) 
[300.0, 400.0, 500.0, 600.0, 800.0, 1000.0, 1500.0, 2000.0, 2400.0]

>  <T_units>  (1) 
K

>  <yaml_path>  (1) 
/home/calvin/Dropbox/PersonalFolders/Calvin/HAb_Converged/rxn_461/output/Species/rxn_461_CC[C]OO/rxn_461_CCCOO.yml

>  <frequencies_cm1>  (1) 
[133.06157454563998, 202.04044208503998, 231.56161197571998, 271.760944039, 294.33959177116, 356.83602516848, 473.3344311222799, 510.8556389107599, 830.6442782778399, 918.9743104489999, 929.5838027684, 950.3564333613999, 1015.8537393435599, 1142.37794386456, 1177.4545048791201, 1189.91808323492, 1344.7960701421998, 1368.9884594245598, 1383.43659653784, 1397.6375221795997, 1405.7886337544398, 1467.7151073702, 1472.94088319872, 1480.87225124332, 1499.65345609352, 3008.92069163504, 3016.50184342832, 3024.30960573716, 3091.2421116512, 3101.35718102756, 3105.31256457188, 3112.21388481848, 3782.0264999166]

>  <ZPE_kJmol>  (1) 
291.2469082235302

>  <E_elec_kJmol>  (1) 
-707616.8135678378

>  <E0_minus_Eelec_plus_ZPE_kJmol>  (1) 
0.0

>  <rxn>  (1) 
rxn_461

>  <species_type>  (1) 
r0

>  <species_folder>  (1) 
rxn_461_CC[C]OO

>  <frequencies_cm1_list>  (1) 
[133.06157454563998, 202.04044208503998, 231.56161197571998, 271.760944039, 294.33959177116, 356.83602516848, 473.3344311222799, 510.8556389107599, 830.6442782778399, 918.9743104489999, 929.5838027684, 950.3564333613999, 1015.8537393435599, 1142.37794386456, 1177.4545048791201, 1189.91808323492, 1344.7960701421998, 1368.9884594245598, 1383.43659653784, 1397.6375221795997, 1405.7886337544398, 1467.7151073702, 1472.94088319872, 1480.87225124332, 1499.65345609352, 3008.92069163504, 3016.50184342832, 3024.30960573716, 3091.2421116512, 3101.35718102756, 3105.31256457188, 3112.21388481848, 3782.0264999166]

>  <E0_kJmol>  (1) 
-707326

>  <H298_kJmol>  (1) 
-707306

$$$$

     RDKit          3D

  7  6  0  0  0  0  0  0  0  0999 V2000
    1.2789   -0.9636    0.7845 H   0  0  0  0  0  0  0  0  0  1  0  0
    0.4552   -0.3308    1.1008 C   0  0  0  0  0  0  0  0  0  2  0  0
   -0.3021   -0.2782   -0.1435 C   0  0  0  0  0  0  0  0  0  3  0  0
   -0.2129    0.6236   -0.9481 O   0  0  0  0  0  0  0  0  0  4  0  0
    0.0507   -0.9456    1.8998 H   0  0  0  0  0  0  0  0  0  5  0  0
    0.9541    0.5861    1.3976 H   0  0  0  0  0  0  0  0  0  6  0  0
   -0.9655   -1.1399   -0.3422 H   0  0  0  0  0  0  0  0  0  7  0  0
  1  2  1  0
  2  5  1  0
  2  6  1  0
  2  3  1  0
  3  4  1  0
  3  7  1  0
M  END
>  <rmg_smiles>  (2) 
C[CH]O

>  <rmg_adjacency_list>  (2) 
1 O u0 p2 c0 {3,S}
2 C u0 p0 c0 {3,S} {4,S} {5,S} {6,S}
3 C u0 p0 c0 {1,S} {2,S} {7,S}
4 H u0 p0 c0 {2,S}
5 H u0 p0 c0 {2,S}
6 H u0 p0 c0 {2,S}
7 H u0 p0 c0 {3,S}


>  <multiplicity>  (2) 
1

>  <reaction>  (2) 
rxn_461

>  <type>  (2) 
r2h

>  <role_mapnums>  (2) 
{"r2h_a": 2, "r2h_h": 1}

>  <role_mapidx>  (2) 
{"r2h_a": 1, "r2h_h": 0}

>  <ordered_mapped_smiles>  (2) 
[H:1][C:2]([CH:3]([OH:4])[H:7])([H:5])[H:6]

>  <mol_properties>  (2) 
{"0": {"label": "a_hydrogen", "atom_type": "H0"}, "1": {"label": "acceptor", "atom_type": "Cs"}}

>  <level_of_theory>  (2) 
wb97xd/def2tzvp

>  <lot_method>  (2) 
wb97xd

>  <lot_basis>  (2) 
def2tzvp

>  <spin_multiplicity>  (2) 
1.0

>  <optical_isomers>  (2) 
1.0

>  <modes>  (2) 
IdealGasTranslation(mass=(44.0262, 'amu')),         NonlinearRotor(             inertia = ([8.78933, 49.4181, 55.1019

>  <frequency_value>  (2) 
unknown

>  <frequency_units>  (2) 
unknown

>  <frequency_list>  (2) 
unknown

>  <arkane_path>  (2) 
/home/calvin/Dropbox/PersonalFolders/Calvin/HAb_Converged/rxn_461/output/Species/rxn_461_CC=O/arkane/output.py

>  <path_exists>  (2) 
True

>  <E0_value>  (2) 
-403770.1896465916

>  <E0_units>  (2) 
kJ/mol

>  <thermo_class>  (2) 
NASA

>  <Cp0_value>  (2) 
33.257888

>  <Cp0_units>  (2) 
J/(mol*K)

>  <CpInf_value>  (2) 
157.97496800000002

>  <CpInf_units>  (2) 
J/(mol*K)

>  <Tmin_value>  (2) 
10.0

>  <Tmin_units>  (2) 
K

>  <Tmax_value>  (2) 
3000.0

>  <Tmax_units>  (2) 
K

>  <polynomials>  (2) 
[{"name": "polynomial1", "class": "NASAPolynomial", "Tmin_value": 10.0, "Tmin_units": "K", "Tmax_value": 551.7368857165849, "Tmax_units": "K", "coeffs": [3.97507673873536, 0.0013024114860969774, 4.26202346281644e-05, -6.20396934088937e-08, 2.909703548783593e-11, -48562335.21276312, 7.1115196041382465]}, {"name": "polynomial2", "class": "NASAPolynomial", "Tmin_value": 551.7368857165849, "Tmin_units": "K", "Tmax_value": 3000.0, "Tmax_units": "K", "coeffs": [1.253916366948188, 0.02103096863478627, -1.101717280527888e-05, 2.7726483449040734e-09, -2.712718236361615e-13, -48562034.9489899, 18.621232079227195]}]

>  <H298_value>  (2) 
-96500.38809812289

>  <H298_units>  (2) 
kcal/mol

>  <S298_value>  (2) 
62.69347809778407

>  <S298_units>  (2) 
cal/(mol*K)

>  <Cp_T_value_list>  (2) 
[13.437958478765879, 16.075750628949308, 18.57033382696412, 20.8061525224228, 24.51454443177339, 27.362022612100347, 31.78756397344111, 33.95738468130023, 34.97139336232206]

>  <Cp_T_units>  (2) 
cal/(mol*K)

>  <T_list>  (2) 
[300.0, 400.0, 500.0, 600.0, 800.0, 1000.0, 1500.0, 2000.0, 2400.0]

>  <T_units>  (2) 
K

>  <yaml_path>  (2) 
/home/calvin/Dropbox/PersonalFolders/Calvin/HAb_Converged/rxn_461/output/Species/rxn_461_CC=O/rxn_461_CC=O.yml

>  <frequencies_cm1>  (2) 
[154.22562330188, 509.85992603936, 771.9521547477999, 887.042828711, 1124.5718509298, 1132.0911998551999, 1368.1506872155198, 1416.2127174702, 1447.6566432504799, 1456.3502466656, 1831.5073886678397, 2863.5603463812795, 3014.3936789350796, 3081.3536527904, 3132.28608290884]

>  <ZPE_kJmol>  (2) 
144.69564018265137

>  <E_elec_kJmol>  (2) 
-403914.8852867742

>  <E0_minus_Eelec_plus_ZPE_kJmol>  (2) 
0.0

>  <rxn>  (2) 
rxn_461

>  <species_type>  (2) 
p0

>  <species_folder>  (2) 
rxn_461_CC=O

>  <frequencies_cm1_list>  (2) 
[154.22562330188, 509.85992603936, 771.9521547477999, 887.042828711, 1124.5718509298, 1132.0911998551999, 1368.1506872155198, 1416.2127174702, 1447.6566432504799, 1456.3502466656, 1831.5073886678397, 2863.5603463812795, 3014.3936789350796, 3081.3536527904, 3132.28608290884]

>  <E0_kJmol>  (2) 
-403770

>  <H298_kJmol>  (2) 
-403758

$$$$

     RDKit          3D

 19 17  0  0  0  0  0  0  0  0999 V2000
    1.6186   -0.1856   -2.2889 C   0  0  0  0  0  0  0  0  0  1  0  0
    1.6950   -0.2158   -0.7766 C   0  0  0  0  0  0  0  0  0  2  0  0
    1.5140    1.1504   -0.1455 C   0  0  0  0  0  0  0  0  0  3  0  0
    0.6532   -1.1351   -0.3906 O   0  0  0  0  0  0  0  0  0  4  0  0
    0.6483   -1.3301    0.9602 O   0  0  0  0  0  0  0  0  0  5  0  0
    2.4285    0.4284   -2.6834 H   0  0  0  0  0  0  0  0  0  6  0  0
    1.7112   -1.1893   -2.7036 H   0  0  0  0  0  0  0  0  0  7  0  0
    0.6688    0.2433   -2.6120 H   0  0  0  0  0  0  0  0  0  8  0  0
    2.6420   -0.6573   -0.4511 H   0  0  0  0  0  0  0  0  0  9  0  0
    0.5431    1.5724   -0.4099 H   0  0  0  0  0  0  0  0  0 10  0  0
    1.5981    1.0961    0.9394 H   0  0  0  0  0  0  0  0  0 11  0  0
    2.2977    1.8176   -0.5076 H   0  0  0  0  0  0  0  0  0 12  0  0
   -0.2014   -0.6781    1.3498 H   0  0  0  0  0  0  0  0  0 13  0  0
   -1.2624    0.1370    1.7572 C   0  0  0  0  0  0  0  0  0 14  0  0
   -2.0197    0.1896    0.5129 C   0  0  0  0  0  0  0  0  0 15  0  0
   -1.9305    1.0914   -0.2917 O   0  0  0  0  0  1  0  0  0 16  0  0
   -1.6670   -0.4778    2.5562 H   0  0  0  0  0  0  0  0  0 17  0  0
   -0.7636    1.0539    2.0540 H   0  0  0  0  0  0  0  0  0 18  0  0
   -2.6831   -0.6721    0.3142 H   0  0  0  0  0  0  0  0  0 19  0  0
  1  8  1  0
  1  7  1  0
  1  6  1  0
  1  2  1  0
  2  4  1  0
  2  9  1  0
  2  3  1  0
  3 11  1  0
  3 12  1  0
  3 10  1  0
  4  5  1  0
  5 13  1  0
 14 18  1  0
 14 17  1  0
 14 15  1  0
 15 19  1  0
 15 16  1  0
M  RAD  1  16   2
M  END
>  <rmg_smiles>  (3) 
CC(C)OO.[CH2][CH][O]

>  <rmg_adjacency_list>  (3) 
multiplicity 2
1  O u0 p2 c0 {2,S} {4,S}
2  O u0 p2 c0 {1,S} {19,S}
3  O u1 p2 c0 {8,S}
4  C u0 p0 c0 {1,S} {5,S} {6,S} {9,S}
5  C u0 p0 c0 {4,S} {10,S} {11,S} {12,S}
6  C u0 p0 c0 {4,S} {13,S} {14,S} {15,S}
7  C u0 p0 c0 {8,S} {16,S} {17,S}
8  C u0 p0 c0 {3,S} {7,S} {18,S}
9  H u0 p0 c0 {4,S}
10 H u0 p0 c0 {5,S}
11 H u0 p0 c0 {5,S}
12 H u0 p0 c0 {5,S}
13 H u0 p0 c0 {6,S}
14 H u0 p0 c0 {6,S}
15 H u0 p0 c0 {6,S}
16 H u0 p0 c0 {7,S}
17 H u0 p0 c0 {7,S}
18 H u0 p0 c0 {8,S}
19 H u0 p0 c0 {2,S}


>  <multiplicity>  (3) 
2

>  <reaction>  (3) 
rxn_461

>  <type>  (3) 
ts

>  <role_mapnums>  (3) 
{"*2": 13, "*1": 5, "*3": 14, "*0": 4, "*4": 15}

>  <role_mapidx>  (3) 
{"*2": 12, "*1": 4, "*3": 13, "*0": 3, "*4": 14}

>  <ordered_mapped_smiles>  (3) 
[C:1]([C:2]([C:3]([H:10])([H:11])[H:12])([O:4][O:5][H:13])[H:9])([H:6])([H:7])[H:8].[CH:14]([CH:15]([O:16])[H:19])([H:17])[H:18]

>  <mol_properties>  (3) 
{"3": {"label": "*0", "atom_type": "O2s"}, "4": {"label": "*1", "atom_type": "O2s"}, "12": {"label": "*2", "atom_type": "H0"}, "13": {"label": "*3", "atom_type": "Cs"}, "14": {"label": "*4", "atom_type": "Cs"}}

>  <level_of_theory>  (3) 
wb97xd/def2tzvp

>  <lot_method>  (3) 
wb97xd

>  <lot_basis>  (3) 
def2tzvp

>  <spin_multiplicity>  (3) 
2.0

>  <optical_isomers>  (3) 
2.0

>  <modes>  (3) 
IdealGasTranslation(mass=(119.071, 'amu')),         NonlinearRotor(             inertia = ([188.765, 402.67, 466.049

>  <frequency_value>  (3) 
-1942.12

>  <frequency_units>  (3) 
cm^-1

>  <frequency_list>  (3) 
unknown

>  <arkane_path>  (3) 
/home/calvin/Dropbox/PersonalFolders/Calvin/HAb_Converged/rxn_461/output/rxns/TS0/arkane/output.py

>  <path_exists>  (3) 
True

>  <E0_value>  (3) 
-1109360.0

>  <E0_units>  (3) 
kJ/mol

>  <thermo_class>  (3) 
unknown

>  <Cp0_value>  (3) 
unknown

>  <Cp0_units>  (3) 
unknown

>  <CpInf_value>  (3) 
unknown

>  <CpInf_units>  (3) 
unknown

>  <Tmin_value>  (3) 
unknown

>  <Tmin_units>  (3) 
unknown

>  <Tmax_value>  (3) 
unknown

>  <Tmax_units>  (3) 
unknown

>  <polynomials>  (3) 
unknown

>  <H298_value>  (3) 
unknown

>  <H298_units>  (3) 
unknown

>  <S298_value>  (3) 
unknown

>  <S298_units>  (3) 
unknown

>  <Cp_T_value_list>  (3) 
unknown

>  <Cp_T_units>  (3) 
unknown

>  <T_list>  (3) 
unknown

>  <T_units>  (3) 
unknown

>  <yaml_path>  (3) 
unknown

>  <frequencies_cm1>  (3) 
unknown

>  <ZPE_kJmol>  (3) 
unknown

>  <E_elec_kJmol>  (3) 
unknown

>  <E0_minus_Eelec_plus_ZPE_kJmol>  (3) 
unknown

>  <rxn>  (3) 
unknown

>  <species_type>  (3) 
unknown

>  <species_folder>  (3) 
unknown

>  <frequencies_cm1_list>  (3) 
[]

>  <ts_imag_freq_cm1>  (3) 
-1965.7044

>  <ts_freq_out_path>  (3) 
/home/calvin/Dropbox/PersonalFolders/Calvin/HAb_Converged/rxn_461/output/rxns/TS0/geometry/freq.out

>  <E0_kJmol>  (3) 
-1.10936e+06

>  <H298_kJmol>  (3) 
unknown

$$$$

     RDKit          3D

 12 11  0  0  0  0  0  0  0  0999 V2000
    1.2775    0.1218   -0.1182 C   0  0  0  0  0  0  0  0  0  1  0  0
   -0.2120    0.2324   -0.3617 C   0  0  0  0  0  0  0  0  0  2  0  0
   -0.6396   -0.1667   -1.7560 C   0  0  0  0  0  0  0  0  0  3  0  0
   -0.9208   -0.6727    0.5392 O   0  0  0  0  0  0  0  0  0  4  0  0
   -0.8742   -0.2720    1.7724 O   0  0  0  0  0  1  0  0  0  5  0  0
    1.8080    0.8238   -0.7630 H   0  0  0  0  0  0  0  0  0  6  0  0
    1.5119    0.3589    0.9187 H   0  0  0  0  0  0  0  0  0  7  0  0
    1.6288   -0.8872   -0.3414 H   0  0  0  0  0  0  0  0  0  8  0  0
   -0.5681    1.2339   -0.1128 H   0  0  0  0  0  0  0  0  0  9  0  0
   -0.3304   -1.1900   -1.9754 H   0  0  0  0  0  0  0  0  0 10  0  0
   -0.1712    0.4958   -2.4844 H   0  0  0  0  0  0  0  0  0 11  0  0
   -1.7211   -0.0962   -1.8697 H   0  0  0  0  0  0  0  0  0 12  0  0
  1  8  1  0
  1  7  1  0
  1  6  1  0
  1  2  1  0
  2  4  1  0
  2  9  1  0
  2  3  1  0
  3 11  1  0
  3 12  1  0
  3 10  1  0
  4  5  1  0
M  RAD  1   5   2
M  END
>  <rmg_smiles>  (4) 
CC(C)O[O]

>  <rmg_adjacency_list>  (4) 
multiplicity 2
1  O u0 p2 c0 {2,S} {3,S}
2  O u1 p2 c0 {1,S}
3  C u0 p0 c0 {1,S} {4,S} {5,S} {6,S}
4  C u0 p0 c0 {3,S} {7,S} {8,S} {9,S}
5  C u0 p0 c0 {3,S} {10,S} {11,S} {12,S}
6  H u0 p0 c0 {3,S}
7  H u0 p0 c0 {4,S}
8  H u0 p0 c0 {4,S}
9  H u0 p0 c0 {4,S}
10 H u0 p0 c0 {5,S}
11 H u0 p0 c0 {5,S}
12 H u0 p0 c0 {5,S}


>  <multiplicity>  (4) 
2

>  <reaction>  (4) 
rxn_461

>  <type>  (4) 
r1

>  <role_mapnums>  (4) 
{}

>  <role_mapidx>  (4) 
{}

>  <ordered_mapped_smiles>  (4) 
[C:1]([C:2]([C:3]([H:10])([H:11])[H:12])([O:4][O:5])[H:9])([H:6])([H:7])[H:8]

>  <level_of_theory>  (4) 
wb97xd/def2tzvp

>  <lot_method>  (4) 
wb97xd

>  <lot_basis>  (4) 
def2tzvp

>  <spin_multiplicity>  (4) 
2.0

>  <optical_isomers>  (4) 
2.0

>  <modes>  (4) 
IdealGasTranslation(mass=(75.0446, 'amu')),         NonlinearRotor(             inertia = ([63.1485, 122.982, 169.051

>  <frequency_value>  (4) 
unknown

>  <frequency_units>  (4) 
unknown

>  <frequency_list>  (4) 
unknown

>  <arkane_path>  (4) 
/home/calvin/Dropbox/PersonalFolders/Calvin/HAb_Converged/rxn_461/output/Species/rxn_461_CC[C]O[O]/arkane/output.py

>  <path_exists>  (4) 
True

>  <E0_value>  (4) 
-705679.693932973

>  <E0_units>  (4) 
kJ/mol

>  <thermo_class>  (4) 
NASA

>  <Cp0_value>  (4) 
33.257888

>  <Cp0_units>  (4) 
J/(mol*K)

>  <CpInf_value>  (4) 
282.692048

>  <CpInf_units>  (4) 
J/(mol*K)

>  <Tmin_value>  (4) 
10.0

>  <Tmin_units>  (4) 
K

>  <Tmax_value>  (4) 
3000.0

>  <Tmax_units>  (4) 
K

>  <polynomials>  (4) 
[{"name": "polynomial1", "class": "NASAPolynomial", "Tmin_value": 10.0, "Tmin_units": "K", "Tmax_value": 784.0443098398882, "Tmax_units": "K", "coeffs": [3.732084480595777, 0.022497093687099342, 2.6049364468455034e-05, -4.776437604712989e-08, 2.054600798942877e-11, -84873659.75787416, 11.154283232464214]}, {"name": "polynomial2", "class": "NASAPolynomial", "Tmin_value": 784.0443098398882, "Tmin_units": "K", "Tmax_value": 3000.0, "Tmax_units": "K", "coeffs": [1.7767780258034005, 0.040196982649254843, -2.2591295355952496e-05, 6.159999754932853e-09, -6.549569870670291e-13, -84873590.56775095, 18.597732747788342]}]

>  <H298_value>  (4) 
-168657.00459466028

>  <H298_units>  (4) 
kcal/mol

>  <S298_value>  (4) 
79.28211410875679

>  <S298_units>  (4) 
cal/(mol*K)

>  <Cp_T_value_list>  (4) 
[23.255164646979747, 28.5519405822447, 33.398087276098806, 37.66505359194139, 44.43708630871117, 49.45661786302551, 57.06485413554544, 60.82093528737992, 62.69559170785201]

>  <Cp_T_units>  (4) 
cal/(mol*K)

>  <T_list>  (4) 
[300.0, 400.0, 500.0, 600.0, 800.0, 1000.0, 1500.0, 2000.0, 2400.0]

>  <T_units>  (4) 
K

>  <yaml_path>  (4) 
/home/calvin/Dropbox/PersonalFolders/Calvin/HAb_Converged/rxn_461/output/Species/rxn_461_CC[C]O[O]/rxn_461_CCCOO.yml

>  <frequencies_cm1>  (4) 
[104.22710318696, 200.79751774212, 241.93762679423997, 307.40746483512, 347.58619594244, 454.6287631105999, 533.03600149436, 814.1703804951601, 904.4025675999599, 936.1623747049599, 948.2620028388, 1129.0628593290799, 1161.74970945228, 1193.2142361885199, 1269.30043353412, 1342.15914777932, 1356.4905461421602, 1397.02636048612, 1410.5749225224797, 1468.4155398728396, 1472.50826312356, 1479.36838145824, 1496.6457165233599, 3024.0349263243597, 3027.653827588, 3052.78012687388, 3100.00438491952, 3108.0318907586, 3112.60530298172, 3118.5040433716]

>  <ZPE_kJmol>  (4) 
260.26410869114926

>  <E_elec_kJmol>  (4) 
-705939.9580416641

>  <E0_minus_Eelec_plus_ZPE_kJmol>  (4) 
0.0

>  <rxn>  (4) 
rxn_461

>  <species_type>  (4) 
p1

>  <species_folder>  (4) 
rxn_461_CC[C]O[O]

>  <frequencies_cm1_list>  (4) 
[104.22710318696, 200.79751774212, 241.93762679423997, 307.40746483512, 347.58619594244, 454.6287631105999, 533.03600149436, 814.1703804951601, 904.4025675999599, 936.1623747049599, 948.2620028388, 1129.0628593290799, 1161.74970945228, 1193.2142361885199, 1269.30043353412, 1342.15914777932, 1356.4905461421602, 1397.02636048612, 1410.5749225224797, 1468.4155398728396, 1472.50826312356, 1479.36838145824, 1496.6457165233599, 3024.0349263243597, 3027.653827588, 3052.78012687388, 3100.00438491952, 3108.0318907586, 3112.60530298172, 3118.5040433716]

>  <E0_kJmol>  (4) 
-705680

>  <H298_kJmol>  (4) 
-705661

$$$$

     RDKit          3D

  6  5  0  0  0  0  0  0  0  0999 V2000
   -0.7133   -0.0465   -0.1138 C   0  0  0  0  0  0  0  0  0  1  0  0
    0.6837    0.0990    0.1040 C   0  0  0  0  0  0  0  0  0  2  0  0
    1.4284   -0.8504    0.3164 O   0  0  0  0  0  1  0  0  0  3  0  0
   -1.3425    0.8143   -0.2988 H   0  0  0  0  0  0  0  0  0  4  0  0
   -1.1519   -1.0358   -0.0939 H   0  0  0  0  0  0  0  0  0  5  0  0
    1.0889    1.1261    0.0750 H   0  0  0  0  0  0  0  0  0  6  0  0
  1  5  1  0
  1  4  1  0
  1  2  1  0
  2  3  1  0
  2  6  1  0
M  RAD  1   3   2
M  END
>  <rmg_smiles>  (5) 
[CH2][CH][O]

>  <rmg_adjacency_list>  (5) 
multiplicity 2
1 O u1 p2 c0 {3,S}
2 C u0 p0 c0 {3,S} {4,S} {5,S}
3 C u0 p0 c0 {1,S} {2,S} {6,S}
4 H u0 p0 c0 {2,S}
5 H u0 p0 c0 {2,S}
6 H u0 p0 c0 {3,S}


>  <multiplicity>  (5) 
2

>  <reaction>  (5) 
rxn_461

>  <type>  (5) 
r2

>  <role_mapnums>  (5) 
{}

>  <role_mapidx>  (5) 
{}

>  <ordered_mapped_smiles>  (5) 
[CH:1]([CH:2]([O:3])[H:6])([H:4])[H:5]

>  <level_of_theory>  (5) 
wb97xd/def2tzvp

>  <lot_method>  (5) 
wb97xd

>  <lot_basis>  (5) 
def2tzvp

>  <spin_multiplicity>  (5) 
2.0

>  <optical_isomers>  (5) 
1.0

>  <modes>  (5) 
IdealGasTranslation(mass=(43.0184, 'amu')),         NonlinearRotor(             inertia = ([7.46923, 43.7555, 51.2248

>  <frequency_value>  (5) 
unknown

>  <frequency_units>  (5) 
unknown

>  <frequency_list>  (5) 
unknown

>  <arkane_path>  (5) 
/home/calvin/Dropbox/PersonalFolders/Calvin/HAb_Converged/rxn_461/output/Species/rxn_461_[CH2]C=O/arkane/output.py

>  <path_exists>  (5) 
True

>  <E0_value>  (5) 
-402064.8713042213

>  <E0_units>  (5) 
kJ/mol

>  <thermo_class>  (5) 
NASA

>  <Cp0_value>  (5) 
33.257888

>  <Cp0_units>  (5) 
J/(mol*K)

>  <CpInf_value>  (5) 
133.031552

>  <CpInf_units>  (5) 
J/(mol*K)

>  <Tmin_value>  (5) 
10.0

>  <Tmin_units>  (5) 
K

>  <Tmax_value>  (5) 
3000.0

>  <Tmax_units>  (5) 
K

>  <polynomials>  (5) 
[{"name": "polynomial1", "class": "NASAPolynomial", "Tmin_value": 10.0, "Tmin_units": "K", "Tmax_value": 528.0713723584518, "Tmax_units": "K", "coeffs": [4.069068181720393, -0.006445847334327831, 8.24519976252606e-05, -1.4303373223005544e-07, 8.214673664772e-11, -48357233.95188342, 7.286659191587968]}, {"name": "polynomial2", "class": "NASAPolynomial", "Tmin_value": 528.0713723584518, "Tmin_units": "K", "Tmax_value": 3000.0, "Tmax_units": "K", "coeffs": [1.7695732635792571, 0.01876974415384689, -1.1322603147409724e-05, 3.314768491708994e-09, -3.755982674490112e-13, -48357099.81311182, 15.882697555195485]}]

>  <H298_value>  (5) 
-96093.00709441646

>  <H298_units>  (5) 
kcal/mol

>  <S298_value>  (5) 
61.819845521600215

>  <S298_units>  (5) 
cal/(mol*K)

>  <Cp_T_value_list>  (5) 
[12.637583235282603, 15.166054906543657, 17.31671305522784, 19.122083502158667, 22.022657621394718, 24.156252691896597, 27.29271108597069, 28.86859523774997, 29.72995192031171]

>  <Cp_T_units>  (5) 
cal/(mol*K)

>  <T_list>  (5) 
[300.0, 400.0, 500.0, 600.0, 800.0, 1000.0, 1500.0, 2000.0, 2400.0]

>  <T_units>  (5) 
K

>  <yaml_path>  (5) 
/home/calvin/Dropbox/PersonalFolders/Calvin/HAb_Converged/rxn_461/output/Species/rxn_461_[CH2]C=O/rxn_461_CH2C=O.yml

>  <frequencies_cm1>  (5) 
[449.66393272424, 506.48823624724, 754.00185512132, 972.8389432990799, 977.2269469185599, 1153.37198736188, 1391.8692545108001, 1463.54684728096, 1583.9044989846002, 2931.70144171164, 3126.8886324473197, 3242.4599953829197]

>  <ZPE_kJmol>  (5) 
110.97737295072427

>  <E_elec_kJmol>  (5) 
-402175.848677172

>  <E0_minus_Eelec_plus_ZPE_kJmol>  (5) 
0.0

>  <rxn>  (5) 
rxn_461

>  <species_type>  (5) 
r1

>  <species_folder>  (5) 
rxn_461_[CH2]C=O

>  <frequencies_cm1_list>  (5) 
[449.66393272424, 506.48823624724, 754.00185512132, 972.8389432990799, 977.2269469185599, 1153.37198736188, 1391.8692545108001, 1463.54684728096, 1583.9044989846002, 2931.70144171164, 3126.8886324473197, 3242.4599953829197]

>  <E0_kJmol>  (5) 
-402065

>  <H298_kJmol>  (5) 
-402053

$$$$
