
     RDKit          3D

  7  6  0  0  0  0  0  0  0  0999 V2000
   -0.1639   -0.1574   -1.8059 O   0  0  0  0  0  0  0  0  0  1  0  0
   -0.0754   -0.0942   -0.6203 C   0  0  0  0  0  0  0  0  0  2  0  0
   -0.0943    1.1719    0.1202 C   0  0  0  0  0  2  0  0  0  3  0  0
   -0.1126    2.1529    0.7139 N   0  0  0  0  0  0  0  0  0  4  0  0
    0.0783   -1.3720    0.2481 C   0  0  0  0  0  0  0  0  0  5  0  0
    0.3362   -1.3543    1.3970 O   0  0  0  0  0  0  0  0  0  6  0  0
   -0.0592   -2.2792   -0.3402 H   0  0  0  0  0  0  0  0  0  7  0  0
  1  2  1  0
  2  3  1  0
  2  5  1  0
  3  4  1  0
  5  7  1  0
  5  6  1  0
M  RAD  1   3   3
M  END
>  <rmg_smiles>  (1) 
[N][C][C]([CH][O])[O]

>  <rmg_adjacency_list>  (1) 
1 O u0 p2 c0 {4,S}
2 O u0 p2 c0 {5,S}
3 N u0 p2 c0 {6,S}
4 C u0 p0 c0 {1,S} {5,S} {6,S}
5 C u0 p0 c0 {2,S} {4,S} {7,S}
6 C u0 p1 c0 {3,S} {4,S}
7 H u0 p0 c0 {5,S}


>  <multiplicity>  (1) 
1

>  <reaction>  (1) 
rxn_3184

>  <type>  (1) 
r1h

>  <role_mapnums>  (1) 
{"r1h_a": 5, "r1h_h": 7}

>  <role_mapidx>  (1) 
{"r1h_a": 4, "r1h_h": 6}

>  <ordered_mapped_smiles>  (1) 
[OH:1][CH:2]([C:3][NH2:4])[CH:5]([OH:6])[H:7]

>  <mol_properties>  (1) 
{"4": {"label": "donator", "atom_type": "Cs"}, "6": {"label": "d_hydrogen", "atom_type": "H0"}}

>  <level_of_theory>  (1) 
wb97xd/def2tzvp

>  <lot_method>  (1) 
wb97xd

>  <lot_basis>  (1) 
def2tzvp

>  <spin_multiplicity>  (1) 
1.0

>  <optical_isomers>  (1) 
1.0

>  <modes>  (1) 
IdealGasTranslation(mass=(83.0007, 'amu')),         NonlinearRotor(             inertia = ([96.3434, 140.528, 236.871

>  <frequency_value>  (1) 
unknown

>  <frequency_units>  (1) 
unknown

>  <frequency_list>  (1) 
unknown

>  <arkane_path>  (1) 
/home/calvin/Dropbox/PersonalFolders/Calvin/ATLAS_Converged/NonRMG/rxn_3184/output/Species/rxn_3184_r2_O=Crbr-CtN-rbrC=O/arkane/output.py

>  <path_exists>  (1) 
True

>  <E0_value>  (1) 
-840239.3524156894

>  <E0_units>  (1) 
kJ/mol

>  <thermo_class>  (1) 
NASA

>  <Cp0_value>  (1) 
33.257888

>  <Cp0_units>  (1) 
J/(mol*K)

>  <CpInf_value>  (1) 
157.97496800000002

>  <CpInf_units>  (1) 
J/(mol*K)

>  <Tmin_value>  (1) 
10.0

>  <Tmin_units>  (1) 
K

>  <Tmax_value>  (1) 
3000.0

>  <Tmax_units>  (1) 
K

>  <polynomials>  (1) 
[{"name": "polynomial1", "class": "NASAPolynomial", "Tmin_value": 10.0, "Tmin_units": "K", "Tmax_value": 277.8171753022404, "Tmax_units": "K", "coeffs": [3.8272643707829737, 0.016351971735588614, 0.00011472284927801032, -5.449441307295338e-07, 7.089720339929807e-10, -101057454.25093481, 10.276959578251263]}, {"name": "polynomial2", "class": "NASAPolynomial", "Tmin_value": 277.8171753022404, "Tmin_units": "K", "Tmax_value": 3000.0, "Tmax_units": "K", "coeffs": [4.721502597310616, 0.021910024762715627, -1.481185489880217e-05, 4.722337274588471e-09, -5.71690030299591e-13, -101057575.07401891, 5.827841367459472]}]

>  <H298_value>  (1) 
-200817.7825688096

>  <H298_units>  (1) 
kcal/mol

>  <S298_value>  (1) 
76.78312356073239

>  <S298_units>  (1) 
cal/(mol*K)

>  <Cp_T_value_list>  (1) 
[20.039617324064004, 22.66053312203586, 24.895947173839822, 26.789895521103283, 29.71590647478132, 31.73632314114142, 34.38577423071608, 35.62224689860408, 36.37296364755319]

>  <Cp_T_units>  (1) 
cal/(mol*K)

>  <T_list>  (1) 
[300.0, 400.0, 500.0, 600.0, 800.0, 1000.0, 1500.0, 2000.0, 2400.0]

>  <T_units>  (1) 
K

>  <yaml_path>  (1) 
/home/calvin/Dropbox/PersonalFolders/Calvin/ATLAS_Converged/NonRMG/rxn_3184/output/Species/rxn_3184_r2_O=Crbr-CtN-rbrC=O/rxn_3184_r2_O=Crbr-CtN-rbrC=O.yml

>  <frequencies_cm1>  (1) 
[108.92412114583999, 143.35518554031998, 249.55311351411999, 295.91213140943995, 495.25384826372, 591.0208255364399, 671.0624064263599, 715.9175545365999, 1010.0168018215599, 1182.27512857376, 1348.97119721676, 1812.7124498469998, 1838.7863931070399, 2353.26780026676, 2954.1152817961197]

>  <ZPE_kJmol>  (1) 
94.33241817106888

>  <E_elec_kJmol>  (1) 
-840333.6848338605

>  <E0_minus_Eelec_plus_ZPE_kJmol>  (1) 
0.0

>  <rxn>  (1) 
rxn_3184

>  <species_type>  (1) 
r1

>  <species_folder>  (1) 
rxn_3184_r2_O=Crbr-CtN-rbrC=O

>  <frequencies_cm1_list>  (1) 
[108.92412114583999, 143.35518554031998, 249.55311351411999, 295.91213140943995, 495.25384826372, 591.0208255364399, 671.0624064263599, 715.9175545365999, 1010.0168018215599, 1182.27512857376, 1348.97119721676, 1812.7124498469998, 1838.7863931070399, 2353.26780026676, 2954.1152817961197]

>  <E0_kJmol>  (1) 
-840239

>  <H298_kJmol>  (1) 
-840222

$$$$

     RDKit          3D

  7  7  0  0  0  0  0  0  0  0999 V2000
   -1.6761    0.0231    1.1136 N   0  0  0  0  0  0  0  0  0  1  0  0
   -0.6329    0.0188    0.4264 C   0  0  0  0  0  0  0  0  0  2  0  0
   -0.3085   -0.9241   -0.5006 O   0  0  0  0  0  0  0  0  0  3  0  0
    0.9134   -0.5645   -1.0274 N   0  0  0  0  0  0  0  0  0  4  0  0
    1.3160    0.4626   -0.5090 N   0  0  0  0  0  0  0  0  0  5  0  0
    0.4025    0.9072    0.4298 O   0  0  0  0  0  0  0  0  0  6  0  0
   -1.6512    0.8646    1.7242 H   0  0  0  0  0  0  0  0  0  7  0  0
  1  2  1  0
  1  7  1  0
  2  3  1  0
  2  6  1  0
  3  4  1  0
  4  5  1  0
  5  6  1  0
M  END
>  <rmg_smiles>  (2) 
[NH][C]1O[N][N]O1

>  <rmg_adjacency_list>  (2) 
1 O u0 p2 c0 {3,S} {6,S}
2 O u0 p2 c0 {4,S} {6,S}
3 N u0 p1 c0 {1,S} {4,S}
4 N u0 p1 c0 {2,S} {3,S}
5 N u0 p1 c0 {6,S} {7,S}
6 C u0 p0 c0 {1,S} {2,S} {5,S}
7 H u0 p0 c0 {5,S}


>  <multiplicity>  (2) 
1

>  <reaction>  (2) 
rxn_3184

>  <type>  (2) 
r2h

>  <role_mapnums>  (2) 
{"r2h_a": 1, "r2h_h": 7}

>  <role_mapidx>  (2) 
{"r2h_a": 0, "r2h_h": 6}

>  <ordered_mapped_smiles>  (2) 
[NH:1]([CH:2]1[O:3][NH:4][NH:5][O:6]1)[H:7]

>  <mol_properties>  (2) 
{"0": {"label": "acceptor", "atom_type": "N3s"}, "6": {"label": "a_hydrogen", "atom_type": "H0"}}

>  <level_of_theory>  (2) 
wb97xd/def2tzvp

>  <lot_method>  (2) 
wb97xd

>  <lot_basis>  (2) 
def2tzvp

>  <spin_multiplicity>  (2) 
1.0

>  <optical_isomers>  (2) 
1.0

>  <modes>  (2) 
IdealGasTranslation(mass=(87.0069, 'amu')),         NonlinearRotor(             inertia = ([48.8575, 120.721, 169.578

>  <frequency_value>  (2) 
unknown

>  <frequency_units>  (2) 
unknown

>  <frequency_list>  (2) 
unknown

>  <arkane_path>  (2) 
/home/calvin/Dropbox/PersonalFolders/Calvin/ATLAS_Converged/NonRMG/rxn_3184/output/Species/rxn_3184_p1_N=c1onno1/arkane/output.py

>  <path_exists>  (2) 
True

>  <E0_value>  (2) 
-927513.3956974436

>  <E0_units>  (2) 
kJ/mol

>  <thermo_class>  (2) 
NASA

>  <Cp0_value>  (2) 
33.257888

>  <Cp0_units>  (2) 
J/(mol*K)

>  <CpInf_value>  (2) 
157.97496800000002

>  <CpInf_units>  (2) 
J/(mol*K)

>  <Tmin_value>  (2) 
10.0

>  <Tmin_units>  (2) 
K

>  <Tmax_value>  (2) 
3000.0

>  <Tmax_units>  (2) 
K

>  <polynomials>  (2) 
[{"name": "polynomial1", "class": "NASAPolynomial", "Tmin_value": 10.0, "Tmin_units": "K", "Tmax_value": 594.5510705426203, "Tmax_units": "K", "coeffs": [4.064128165333628, -0.006464132682369532, 0.00012609118943386684, -2.2452471871589397e-07, 1.2482881080850414e-10, -111554092.36102824, 9.73736041625877]}, {"name": "polynomial2", "class": "NASAPolynomial", "Tmin_value": 594.5510705426203, "Tmin_units": "K", "Tmax_value": 3000.0, "Tmax_units": "K", "coeffs": [2.6619435988700717, 0.02700063330274151, -1.8966063744434276e-05, 6.109629991067157e-09, -7.351884988814937e-13, -111554350.36753283, 12.201082878024012]}]

>  <H298_value>  (2) 
-221677.73393283132

>  <H298_units>  (2) 
kcal/mol

>  <S298_value>  (2) 
69.21240690289005

>  <S298_units>  (2) 
cal/(mol*K)

>  <Cp_T_value_list>  (2) 
[16.736335365541446, 20.824137553247738, 24.027452944596273, 26.348252322457366, 29.711055843773885, 31.936305555783512, 34.552273976473494, 35.596788664173474, 36.33939231381346]

>  <Cp_T_units>  (2) 
cal/(mol*K)

>  <T_list>  (2) 
[300.0, 400.0, 500.0, 600.0, 800.0, 1000.0, 1500.0, 2000.0, 2400.0]

>  <T_units>  (2) 
K

>  <yaml_path>  (2) 
/home/calvin/Dropbox/PersonalFolders/Calvin/ATLAS_Converged/NonRMG/rxn_3184/output/Species/rxn_3184_p1_N=c1onno1/rxn_3184_p1_N=c1onno1.yml

>  <frequencies_cm1>  (2) 
[208.89369343439998, 445.44073675243993, 644.52150816456, 714.2214091625599, 757.75122910604, 783.81143839544, 819.0802749989599, 941.40875148944, 996.4545058145599, 1049.54316932348, 1062.20589025356, 1273.50302854996, 1598.9500638207198, 1829.7357064552798, 3558.0254387782]

>  <ZPE_kJmol>  (2) 
99.78979924741076

>  <E_elec_kJmol>  (2) 
-927613.1854966908

>  <E0_minus_Eelec_plus_ZPE_kJmol>  (2) 
0.0

>  <rxn>  (2) 
rxn_3184

>  <species_type>  (2) 
p0

>  <species_folder>  (2) 
rxn_3184_p1_N=c1onno1

>  <frequencies_cm1_list>  (2) 
[208.89369343439998, 445.44073675243993, 644.52150816456, 714.2214091625599, 757.75122910604, 783.81143839544, 819.0802749989599, 941.40875148944, 996.4545058145599, 1049.54316932348, 1062.20589025356, 1273.50302854996, 1598.9500638207198, 1829.7357064552798, 3558.0254387782]

>  <E0_kJmol>  (2) 
-927513

>  <H298_kJmol>  (2) 
-927500

$$$$

     RDKit          3D

 13 12  0  0  0  0  0  0  0  0999 V2000
   -0.9116   -1.7179   -0.0344 N   0  0  0  0  0  2  0  0  0  1  0  0
    0.1316   -1.7222   -0.7216 C   0  0  0  0  0  0  0  0  0  2  0  0
    0.4560   -2.6650   -1.6486 O   0  0  0  0  0  0  0  0  0  3  0  0
    1.6779   -2.3054   -2.1754 N   0  0  0  0  0  0  0  0  0  4  0  0
    2.0805   -1.2783   -1.6570 N   0  0  0  0  0  0  0  0  0  5  0  0
    1.1670   -0.8337   -0.7182 O   0  0  0  0  0  0  0  0  0  6  0  0
   -0.9625    1.6556   -0.6024 O   0  0  0  0  0  0  0  0  0  7  0  0
   -0.8740    1.7188    0.5832 C   0  0  0  0  0  0  0  0  0  8  0  0
   -0.8929    2.9850    1.3237 C   0  0  0  0  0  0  0  0  0  9  0  0
   -0.9112    3.9660    1.9174 N   0  0  0  0  0  0  0  0  0 10  0  0
   -0.7203    0.4411    1.4516 C   0  0  0  0  0  0  0  0  0 11  0  0
   -0.4624    0.4587    2.6005 O   0  0  0  0  0  0  0  0  0 12  0  0
   -0.8787   -0.6036    0.7741 H   0  0  0  0  0  0  0  0  0 13  0  0
  1  2  1  0
  2  3  1  0
  2  6  1  0
  3  4  1  0
  4  5  1  0
  5  6  1  0
  7  8  1  0
  8  9  1  0
  8 11  1  0
  9 10  1  0
 11 12  1  0
 11 13  1  0
M  RAD  1   1   2
M  END
>  <rmg_smiles>  (3) 
[N][C]1O[N][N]O1.[N][C][C]([CH][O])[O]

>  <rmg_adjacency_list>  (3) 
multiplicity 2
1  O u0 p2 c0 {5,S} {10,S}
2  O u0 p2 c0 {6,S} {10,S}
3  O u0 p2 c0 {9,S}
4  O u0 p2 c0 {11,S}
5  N u0 p1 c0 {1,S} {6,S}
6  N u0 p1 c0 {2,S} {5,S}
7  N u1 p2 c0 {10,S}
8  N u0 p2 c0 {12,S}
9  C u0 p0 c0 {3,S} {11,S} {12,S}
10 C u0 p0 c0 {1,S} {2,S} {7,S}
11 C u0 p0 c0 {4,S} {9,S} {13,S}
12 C u0 p1 c0 {8,S} {9,S}
13 H u0 p0 c0 {11,S}


>  <multiplicity>  (3) 
2

>  <reaction>  (3) 
rxn_3184

>  <type>  (3) 
ts

>  <role_mapnums>  (3) 
{"*2": 13, "*1": 11, "*3": 1, "*0": 8, "*4": 2}

>  <role_mapidx>  (3) 
{"*2": 12, "*1": 10, "*3": 0, "*0": 7, "*4": 1}

>  <ordered_mapped_smiles>  (3) 
[NH:1][CH:2]1[O:3][NH:4][NH:5][O:6]1.[OH:7][CH:8]([CH2:9][NH2:10])[CH:11]([OH:12])[H:13]

>  <mol_properties>  (3) 
{"0": {"label": "*3", "atom_type": "N1s"}, "1": {"label": "*4", "atom_type": "Cs"}, "7": {"label": "*0", "atom_type": "Cs"}, "10": {"label": "*1", "atom_type": "Cs"}, "12": {"label": "*2", "atom_type": "H0"}}

>  <level_of_theory>  (3) 
wb97xd/def2tzvp

>  <lot_method>  (3) 
wb97xd

>  <lot_basis>  (3) 
def2tzvp

>  <spin_multiplicity>  (3) 
2.0

>  <optical_isomers>  (3) 
2.0

>  <modes>  (3) 
IdealGasTranslation(mass=(169, 'amu')),         NonlinearRotor(             inertia = ([222.307, 1131.84, 1212.32

>  <frequency_value>  (3) 
-1505.31

>  <frequency_units>  (3) 
cm^-1

>  <frequency_list>  (3) 
unknown

>  <arkane_path>  (3) 
/home/calvin/Dropbox/PersonalFolders/Calvin/ATLAS_Converged/NonRMG/rxn_3184/output/rxns/TS0/arkane/output.py

>  <path_exists>  (3) 
True

>  <E0_value>  (3) 
-1765990.0

>  <E0_units>  (3) 
kJ/mol

>  <thermo_class>  (3) 
unknown

>  <Cp0_value>  (3) 
unknown

>  <Cp0_units>  (3) 
unknown

>  <CpInf_value>  (3) 
unknown

>  <CpInf_units>  (3) 
unknown

>  <Tmin_value>  (3) 
unknown

>  <Tmin_units>  (3) 
unknown

>  <Tmax_value>  (3) 
unknown

>  <Tmax_units>  (3) 
unknown

>  <polynomials>  (3) 
unknown

>  <H298_value>  (3) 
unknown

>  <H298_units>  (3) 
unknown

>  <S298_value>  (3) 
unknown

>  <S298_units>  (3) 
unknown

>  <Cp_T_value_list>  (3) 
unknown

>  <Cp_T_units>  (3) 
unknown

>  <T_list>  (3) 
unknown

>  <T_units>  (3) 
unknown

>  <yaml_path>  (3) 
unknown

>  <frequencies_cm1>  (3) 
unknown

>  <ZPE_kJmol>  (3) 
unknown

>  <E_elec_kJmol>  (3) 
unknown

>  <E0_minus_Eelec_plus_ZPE_kJmol>  (3) 
unknown

>  <rxn>  (3) 
unknown

>  <species_type>  (3) 
unknown

>  <species_folder>  (3) 
unknown

>  <frequencies_cm1_list>  (3) 
[]

>  <ts_imag_freq_cm1>  (3) 
-1523.598

>  <ts_freq_out_path>  (3) 
/home/calvin/Dropbox/PersonalFolders/Calvin/ATLAS_Converged/NonRMG/rxn_3184/output/rxns/TS0/geometry/freq.out

>  <E0_kJmol>  (3) 
-1.76599e+06

>  <H298_kJmol>  (3) 
unknown

$$$$

     RDKit          3D

  6  5  0  0  0  0  0  0  0  0999 V2000
   -0.6991    1.5872    0.3918 O   0  0  0  0  0  1  0  0  0  1  0  0
   -0.1736    0.4606    0.3299 C   0  0  0  0  0  0  0  0  0  2  0  0
    1.2463    0.1827    0.2916 C   0  0  0  0  0  0  0  0  0  3  0  0
    2.3715   -0.0461    0.2609 N   0  0  0  0  0  0  0  0  0  4  0  0
   -0.9996   -0.6616    0.2923 C   0  0  0  0  0  0  0  0  0  5  0  0
   -1.7457   -1.5229    0.2654 O   0  0  0  0  0  0  0  0  0  6  0  0
  1  2  1  0
  2  3  1  0
  2  5  1  0
  3  4  1  0
  5  6  1  0
M  RAD  1   1   2
M  END
>  <rmg_smiles>  (4) 
[N][C][C]([C][O])[O]

>  <rmg_adjacency_list>  (4) 
multiplicity 2
1 O u1 p2 c0 {4,S}
2 O u0 p2 c0 {6,S}
3 N u0 p2 c0 {5,S}
4 C u0 p0 c0 {1,S} {5,S} {6,S}
5 C u0 p1 c0 {3,S} {4,S}
6 C u0 p1 c0 {2,S} {4,S}


>  <multiplicity>  (4) 
2

>  <reaction>  (4) 
rxn_3184

>  <type>  (4) 
r1

>  <role_mapnums>  (4) 
{}

>  <role_mapidx>  (4) 
{}

>  <ordered_mapped_smiles>  (4) 
[O:1][CH:2]([CH2:3][NH2:4])[CH2:5][OH:6]

>  <level_of_theory>  (4) 
wb97xd/def2tzvp

>  <lot_method>  (4) 
wb97xd

>  <lot_basis>  (4) 
def2tzvp

>  <spin_multiplicity>  (4) 
2.0

>  <optical_isomers>  (4) 
1.0

>  <modes>  (4) 
IdealGasTranslation(mass=(81.9929, 'amu')),         NonlinearRotor(             inertia = ([74.011, 177.789, 251.799

>  <frequency_value>  (4) 
unknown

>  <frequency_units>  (4) 
unknown

>  <frequency_list>  (4) 
unknown

>  <arkane_path>  (4) 
/home/calvin/Dropbox/PersonalFolders/Calvin/ATLAS_Converged/NonRMG/rxn_3184/output/Species/rxn_3184_p2_O=Crbr-CtN-rbrsbr-C-sbr=O/arkane/output.py

>  <path_exists>  (4) 
True

>  <E0_value>  (4) 
-838587.4669879117

>  <E0_units>  (4) 
kJ/mol

>  <thermo_class>  (4) 
NASA

>  <Cp0_value>  (4) 
33.257888

>  <Cp0_units>  (4) 
J/(mol*K)

>  <CpInf_value>  (4) 
133.031552

>  <CpInf_units>  (4) 
J/(mol*K)

>  <Tmin_value>  (4) 
10.0

>  <Tmin_units>  (4) 
K

>  <Tmax_value>  (4) 
3000.0

>  <Tmax_units>  (4) 
K

>  <polynomials>  (4) 
[{"name": "polynomial1", "class": "NASAPolynomial", "Tmin_value": 10.0, "Tmin_units": "K", "Tmax_value": 387.61149017840836, "Tmax_units": "K", "coeffs": [3.8307083605984413, 0.013131935179998831, 9.490498576087596e-05, -3.395180709098245e-07, 3.241287575271192e-10, -100858777.06086183, 10.95318279899322]}, {"name": "polynomial2", "class": "NASAPolynomial", "Tmin_value": 387.61149017840836, "Tmin_units": "K", "Tmax_value": 3000.0, "Tmax_units": "K", "coeffs": [5.815218715880053, 0.016676172115216426, -1.1778576890102217e-05, 3.869487240059007e-09, -4.786836008159139e-13, -100859111.37324879, 0.9319335663200703]}]

>  <H298_value>  (4) 
-200423.1540467993

>  <H298_units>  (4) 
kcal/mol

>  <S298_value>  (4) 
76.60373132117422

>  <S298_units>  (4) 
cal/(mol*K)

>  <Cp_T_value_list>  (4) 
[19.415390358578083, 21.534379428902206, 23.175654191018722, 24.550756224203194, 26.63448076592547, 28.026800542445326, 29.736285022321066, 30.50404841684559, 31.00766970602603]

>  <Cp_T_units>  (4) 
cal/(mol*K)

>  <T_list>  (4) 
[300.0, 400.0, 500.0, 600.0, 800.0, 1000.0, 1500.0, 2000.0, 2400.0]

>  <T_units>  (4) 
K

>  <yaml_path>  (4) 
/home/calvin/Dropbox/PersonalFolders/Calvin/ATLAS_Converged/NonRMG/rxn_3184/output/Species/rxn_3184_p2_O=Crbr-CtN-rbrsbr-C-sbr=O/rxn_3184_p2_O=Crbr-CtN-rbrsbr-C-sbr=O.yml

>  <frequencies_cm1>  (4) 
[121.10615310352, 237.65949493987998, 245.98914813304, 347.09177299939995, 550.0798590585999, 567.04817978432, 633.9257498157999, 759.0834242581201, 1164.63384328668, 1477.4456255686398, 2199.34432431896, 2338.4488459461995]

>  <ZPE_kJmol>  (4) 
63.652455067894905

>  <E_elec_kJmol>  (4) 
-838651.1194429796

>  <E0_minus_Eelec_plus_ZPE_kJmol>  (4) 
0.0

>  <rxn>  (4) 
rxn_3184

>  <species_type>  (4) 
p1

>  <species_folder>  (4) 
rxn_3184_p2_O=Crbr-CtN-rbrsbr-C-sbr=O

>  <frequencies_cm1_list>  (4) 
[121.10615310352, 237.65949493987998, 245.98914813304, 347.09177299939995, 550.0798590585999, 567.04817978432, 633.9257498157999, 759.0834242581201, 1164.63384328668, 1477.4456255686398, 2199.34432431896, 2338.4488459461995]

>  <E0_kJmol>  (4) 
-838587

>  <H298_kJmol>  (4) 
-838570

$$$$

     RDKit          3D

  6  6  0  0  0  0  0  0  0  0999 V2000
    1.9594    0.0134   -0.3734 N   0  0  0  0  0  2  0  0  0  1  0  0
    0.7437    0.0051   -0.0788 C   0  0  0  0  0  0  0  0  0  2  0  0
   -0.0745    1.0868    0.0233 O   0  0  0  0  0  0  0  0  0  3  0  0
   -1.3223    0.5972    0.3682 N   0  0  0  0  0  0  0  0  0  4  0  0
   -1.2899   -0.6150    0.4676 N   0  0  0  0  0  0  0  0  0  5  0  0
   -0.0165   -1.0874    0.2015 O   0  0  0  0  0  0  0  0  0  6  0  0
  1  2  1  0
  2  3  1  0
  2  6  1  0
  3  4  1  0
  4  5  1  0
  5  6  1  0
M  RAD  1   1   2
M  END
>  <rmg_smiles>  (5) 
[N][C]1O[N][N]O1

>  <rmg_adjacency_list>  (5) 
multiplicity 2
1 O u0 p2 c0 {3,S} {6,S}
2 O u0 p2 c0 {4,S} {6,S}
3 N u0 p1 c0 {1,S} {4,S}
4 N u0 p1 c0 {2,S} {3,S}
5 N u1 p2 c0 {6,S}
6 C u0 p0 c0 {1,S} {2,S} {5,S}


>  <multiplicity>  (5) 
2

>  <reaction>  (5) 
rxn_3184

>  <type>  (5) 
r2

>  <role_mapnums>  (5) 
{}

>  <role_mapidx>  (5) 
{}

>  <ordered_mapped_smiles>  (5) 
[NH:1][CH:2]1[O:3][NH:4][NH:5][O:6]1

>  <level_of_theory>  (5) 
wb97xd/def2tzvp

>  <lot_method>  (5) 
wb97xd

>  <lot_basis>  (5) 
def2tzvp

>  <spin_multiplicity>  (5) 
2.0

>  <optical_isomers>  (5) 
1.0

>  <modes>  (5) 
IdealGasTranslation(mass=(85.999, 'amu')),         NonlinearRotor(             inertia = ([48.4503, 114.569, 163.019

>  <frequency_value>  (5) 
unknown

>  <frequency_units>  (5) 
unknown

>  <frequency_list>  (5) 
unknown

>  <arkane_path>  (5) 
/home/calvin/Dropbox/PersonalFolders/Calvin/ATLAS_Converged/NonRMG/rxn_3184/output/Species/rxn_3184_r1_sbr-N-sbr=c1onno1/arkane/output.py

>  <path_exists>  (5) 
True

>  <E0_value>  (5) 
-925766.1233507326

>  <E0_units>  (5) 
kJ/mol

>  <thermo_class>  (5) 
NASA

>  <Cp0_value>  (5) 
33.257888

>  <Cp0_units>  (5) 
J/(mol*K)

>  <CpInf_value>  (5) 
133.031552

>  <CpInf_units>  (5) 
J/(mol*K)

>  <Tmin_value>  (5) 
10.0

>  <Tmin_units>  (5) 
K

>  <Tmax_value>  (5) 
3000.0

>  <Tmax_units>  (5) 
K

>  <polynomials>  (5) 
[{"name": "polynomial1", "class": "NASAPolynomial", "Tmin_value": 10.0, "Tmin_units": "K", "Tmax_value": 616.0864984642515, "Tmax_units": "K", "coeffs": [3.94812055354869, 0.002870632430470056, 6.601813711413239e-05, -1.1874693803665765e-07, 6.345849341330536e-11, -111343943.32258263, 9.377120967783604]}, {"name": "polynomial2", "class": "NASAPolynomial", "Tmin_value": 616.0864984642515, "Tmin_units": "K", "Tmax_value": 3000.0, "Tmax_units": "K", "coeffs": [2.4544566455499175, 0.02517036301302165, -1.8957852591200607e-05, 6.406820502487897e-09, -7.999640326918053e-13, -111343998.43927236, 13.91872622116066]}]

>  <H298_value>  (5) 
-221260.06538606877

>  <H298_units>  (5) 
kcal/mol

>  <S298_value>  (5) 
69.02430482099071

>  <S298_units>  (5) 
cal/(mol*K)

>  <Cp_T_value_list>  (5) 
[16.01447807468723, 19.24412536395936, 21.88065311931888, 23.870148628394773, 26.6491311769416, 28.365034926557463, 30.06252774055981, 30.64056177383133, 31.185424153668]

>  <Cp_T_units>  (5) 
cal/(mol*K)

>  <T_list>  (5) 
[300.0, 400.0, 500.0, 600.0, 800.0, 1000.0, 1500.0, 2000.0, 2400.0]

>  <T_units>  (5) 
K

>  <yaml_path>  (5) 
/home/calvin/Dropbox/PersonalFolders/Calvin/ATLAS_Converged/NonRMG/rxn_3184/output/Species/rxn_3184_r1_sbr-N-sbr=c1onno1/rxn_3184_r1_sbr-N-sbr=c1onno1.yml

>  <frequencies_cm1>  (5) 
[203.66105062056, 421.06293886643994, 625.6235645639199, 691.3131461350399, 746.0704870767199, 784.21659052932, 934.89884940608, 1008.3206564475199, 1041.0761764239198, 1163.2398452667198, 1617.8480074213599, 1768.29678879724]

>  <ZPE_kJmol>  (5) 
65.82829353267302

>  <E_elec_kJmol>  (5) 
-925831.9516442652

>  <E0_minus_Eelec_plus_ZPE_kJmol>  (5) 
0.0

>  <rxn>  (5) 
rxn_3184

>  <species_type>  (5) 
r0

>  <species_folder>  (5) 
rxn_3184_r1_sbr-N-sbr=c1onno1

>  <frequencies_cm1_list>  (5) 
[203.66105062056, 421.06293886643994, 625.6235645639199, 691.3131461350399, 746.0704870767199, 784.21659052932, 934.89884940608, 1008.3206564475199, 1041.0761764239198, 1163.2398452667198, 1617.8480074213599, 1768.29678879724]

>  <E0_kJmol>  (5) 
-925766

>  <H298_kJmol>  (5) 
-925752

$$$$
