
     RDKit          3D

 10  9  0  0  0  0  0  0  0  0999 V2000
   -0.6168   -0.7742   -1.6299 C   0  0  0  0  0  2  0  0  0  1  0  0
   -0.3177   -0.4882   -0.5025 C   0  0  0  0  0  2  0  0  0  2  0  0
    0.0955   -0.1618    0.8335 C   0  0  0  0  0  0  0  0  0  3  0  0
    0.6780    1.2270    1.0221 C   0  0  0  0  0  0  0  0  0  4  0  0
   -0.8977   -1.0257   -2.6241 H   0  0  0  0  0  0  0  0  0  5  0  0
    0.8936   -0.8543    1.1046 H   0  0  0  0  0  0  0  0  0  6  0  0
   -0.6792   -0.4008    1.5634 H   0  0  0  0  0  0  0  0  0  7  0  0
   -0.0700    1.9974    0.8249 H   0  0  0  0  0  0  0  0  0  8  0  0
    1.0378    1.3468    2.0445 H   0  0  0  0  0  0  0  0  0  9  0  0
    1.5165    1.3870    0.3435 H   0  0  0  0  0  0  0  0  0 10  0  0
  1  5  1  0
  1  2  1  0
  2  3  1  0
  3  4  1  0
  3  6  1  0
  3  7  1  0
  4  8  1  0
  4  9  1  0
  4 10  1  0
M  RAD  2   1   3   2   3
M  END
>  <rmg_smiles>  (1) 
[CH][C]CC

>  <rmg_adjacency_list>  (1) 
1  C u0 p0 c0 {2,S} {3,S} {5,S} {6,S}
2  C u0 p0 c0 {1,S} {7,S} {8,S} {9,S}
3  C u0 p1 c0 {1,S} {4,S}
4  C u0 p1 c0 {3,S} {10,S}
5  H u0 p0 c0 {1,S}
6  H u0 p0 c0 {1,S}
7  H u0 p0 c0 {2,S}
8  H u0 p0 c0 {2,S}
9  H u0 p0 c0 {2,S}
10 H u0 p0 c0 {4,S}


>  <multiplicity>  (1) 
1

>  <reaction>  (1) 
rxn_1276

>  <type>  (1) 
r1h

>  <role_mapnums>  (1) 
{"r1h_a": 3, "r1h_h": 6}

>  <role_mapidx>  (1) 
{"r1h_a": 2, "r1h_h": 5}

>  <ordered_mapped_smiles>  (1) 
[C:1]([C:2][C:3]([C:4]([H:8])([H:9])[H:10])([H:6])[H:7])[H:5]

>  <mol_properties>  (1) 
{"2": {"label": "donator", "atom_type": "Cs"}, "5": {"label": "d_hydrogen", "atom_type": "H0"}}

>  <level_of_theory>  (1) 
wb97xd/def2tzvp

>  <lot_method>  (1) 
wb97xd

>  <lot_basis>  (1) 
def2tzvp

>  <spin_multiplicity>  (1) 
1.0

>  <optical_isomers>  (1) 
1.0

>  <modes>  (1) 
IdealGasTranslation(mass=(54.047, 'amu')),         NonlinearRotor(             inertia = ([18.311, 110.882, 122.965

>  <frequency_value>  (1) 
unknown

>  <frequency_units>  (1) 
unknown

>  <frequency_list>  (1) 
unknown

>  <arkane_path>  (1) 
/home/calvin/Dropbox/PersonalFolders/Calvin/HAb_Converged/rxn_1276/output/Species/rxn_1276_CtCCC/arkane/output.py

>  <path_exists>  (1) 
True

>  <E0_value>  (1) 
-409281.9068125439

>  <E0_units>  (1) 
kJ/mol

>  <thermo_class>  (1) 
NASA

>  <Cp0_value>  (1) 
33.257888

>  <Cp0_units>  (1) 
J/(mol*K)

>  <CpInf_value>  (1) 
232.805216

>  <CpInf_units>  (1) 
J/(mol*K)

>  <Tmin_value>  (1) 
10.0

>  <Tmin_units>  (1) 
K

>  <Tmax_value>  (1) 
3000.0

>  <Tmax_units>  (1) 
K

>  <polynomials>  (1) 
[{"name": "polynomial1", "class": "NASAPolynomial", "Tmin_value": 10.0, "Tmin_units": "K", "Tmax_value": 360.48121370424, "Tmax_units": "K", "coeffs": [3.964907651517416, 0.0024252181225602747, 0.00010970866124517926, -2.330425775882924e-07, 1.6483387684637681e-10, -49225243.05086936, 8.23900007534587]}, {"name": "polynomial2", "class": "NASAPolynomial", "Tmin_value": 360.48121370424, "Tmin_units": "K", "Tmax_value": 3000.0, "Tmax_units": "K", "coeffs": [1.173366775306642, 0.03340704549885685, -1.9235392341731885e-05, 5.470981511725664e-09, -6.120493514194064e-13, -49225041.83097189, 18.857768088551204]}]

>  <H298_value>  (1) 
-97816.99696801163

>  <H298_units>  (1) 
kcal/mol

>  <S298_value>  (1) 
68.93760489416931

>  <S298_units>  (1) 
cal/(mol*K)

>  <Cp_T_value_list>  (1) 
[19.095578790385176, 23.435119416919605, 27.251876378154844, 30.59356719880144, 36.04553968052718, 40.149424943692715, 46.44174128793762, 49.72179624324852, 51.42678973904542]

>  <Cp_T_units>  (1) 
cal/(mol*K)

>  <T_list>  (1) 
[300.0, 400.0, 500.0, 600.0, 800.0, 1000.0, 1500.0, 2000.0, 2400.0]

>  <T_units>  (1) 
K

>  <yaml_path>  (1) 
/home/calvin/Dropbox/PersonalFolders/Calvin/HAb_Converged/rxn_1276/output/Species/rxn_1276_CtCCC/rxn_1276_CtCCC.yml

>  <frequencies_cm1>  (1) 
[204.17607451956, 218.97442788415998, 366.0789874092, 525.48918462768, 681.08133800824, 687.0144133247201, 787.3273348792799, 847.3241856201199, 1026.4769656336, 1086.98884027344, 1103.26359548184, 1280.9125057102399, 1344.0544357276399, 1402.80149514024, 1466.62325670432, 1482.32805213116, 1490.70577422156, 2222.88434999592, 3023.4855674987602, 3025.88901236076, 3057.6625534364, 3103.54088235932, 3108.5949835548395, 3438.35448560656]

>  <ZPE_kJmol>  (1) 
221.20174166210896

>  <E_elec_kJmol>  (1) 
-409503.108554206

>  <E0_minus_Eelec_plus_ZPE_kJmol>  (1) 
0.0

>  <rxn>  (1) 
rxn_1276

>  <species_type>  (1) 
r0

>  <species_folder>  (1) 
rxn_1276_CtCCC

>  <frequencies_cm1_list>  (1) 
[204.17607451956, 218.97442788415998, 366.0789874092, 525.48918462768, 681.08133800824, 687.0144133247201, 787.3273348792799, 847.3241856201199, 1026.4769656336, 1086.98884027344, 1103.26359548184, 1280.9125057102399, 1344.0544357276399, 1402.80149514024, 1466.62325670432, 1482.32805213116, 1490.70577422156, 2222.88434999592, 3023.4855674987602, 3025.88901236076, 3057.6625534364, 3103.54088235932, 3108.5949835548395, 3438.35448560656]

>  <E0_kJmol>  (1) 
-409282

>  <H298_kJmol>  (1) 
-409266

$$$$

     RDKit          3D

 10  9  0  0  0  0  0  0  0  0999 V2000
   -1.3520    0.6156    0.0681 H   0  0  0  0  0  0  0  0  0  1  0  0
   -0.7009   -0.4351    1.6718 C   0  0  0  0  0  0  0  0  0  2  0  0
   -0.5133    0.0383    0.4573 C   0  0  0  0  0  0  0  0  0  3  0  0
    0.6260   -0.0191   -0.4280 C   0  0  0  0  0  0  0  0  0  4  0  0
    0.6228    0.3976   -1.6905 C   0  0  0  0  0  0  0  0  0  5  0  0
   -1.6321   -0.2849    2.2067 H   0  0  0  0  0  0  0  0  0  6  0  0
    0.0725   -1.0048    2.1845 H   0  0  0  0  0  0  0  0  0  7  0  0
    1.5383   -0.4363   -0.0012 H   0  0  0  0  0  0  0  0  0  8  0  0
    1.5118    0.3259   -2.3033 H   0  0  0  0  0  0  0  0  0  9  0  0
   -0.2688    0.8085   -2.1498 H   0  0  0  0  0  0  0  0  0 10  0  0
  1  3  1  0
  2  7  1  0
  2  6  1  0
  2  3  1  0
  3  4  1  0
  4  5  1  0
  4  8  1  0
  5  9  1  0
  5 10  1  0
M  END
>  <rmg_smiles>  (2) 
[CH2][CH][CH][CH2]

>  <rmg_adjacency_list>  (2) 
1  C u0 p0 c0 {2,S} {3,S} {5,S}
2  C u0 p0 c0 {1,S} {4,S} {6,S}
3  C u0 p0 c0 {1,S} {7,S} {8,S}
4  C u0 p0 c0 {2,S} {9,S} {10,S}
5  H u0 p0 c0 {1,S}
6  H u0 p0 c0 {2,S}
7  H u0 p0 c0 {3,S}
8  H u0 p0 c0 {3,S}
9  H u0 p0 c0 {4,S}
10 H u0 p0 c0 {4,S}


>  <multiplicity>  (2) 
1

>  <reaction>  (2) 
rxn_1276

>  <type>  (2) 
r2h

>  <role_mapnums>  (2) 
{"r2h_a": 3, "r2h_h": 1}

>  <role_mapidx>  (2) 
{"r2h_a": 2, "r2h_h": 0}

>  <ordered_mapped_smiles>  (2) 
[H:1][CH:3]([CH:2]([H:6])[H:7])[CH:4]([CH:5]([H:9])[H:10])[H:8]

>  <mol_properties>  (2) 
{"0": {"label": "a_hydrogen", "atom_type": "H0"}, "2": {"label": "acceptor", "atom_type": "Cs"}}

>  <level_of_theory>  (2) 
wb97xd/def2tzvp

>  <lot_method>  (2) 
wb97xd

>  <lot_basis>  (2) 
def2tzvp

>  <spin_multiplicity>  (2) 
1.0

>  <optical_isomers>  (2) 
1.0

>  <modes>  (2) 
IdealGasTranslation(mass=(54.047, 'amu')),         NonlinearRotor(             inertia = ([11.9182, 113.061, 124.979

>  <frequency_value>  (2) 
unknown

>  <frequency_units>  (2) 
unknown

>  <frequency_list>  (2) 
unknown

>  <arkane_path>  (2) 
/home/calvin/Dropbox/PersonalFolders/Calvin/HAb_Converged/rxn_1276/output/Species/rxn_1276_C=CC=C/arkane/output.py

>  <path_exists>  (2) 
True

>  <E0_value>  (2) 
-409338.1696024378

>  <E0_units>  (2) 
kJ/mol

>  <thermo_class>  (2) 
NASA

>  <Cp0_value>  (2) 
33.257888

>  <Cp0_units>  (2) 
J/(mol*K)

>  <CpInf_value>  (2) 
232.805216

>  <CpInf_units>  (2) 
J/(mol*K)

>  <Tmin_value>  (2) 
10.0

>  <Tmin_units>  (2) 
K

>  <Tmax_value>  (2) 
3000.0

>  <Tmax_units>  (2) 
K

>  <polynomials>  (2) 
[{"name": "polynomial1", "class": "NASAPolynomial", "Tmin_value": 10.0, "Tmin_units": "K", "Tmax_value": 477.25150837589547, "Tmax_units": "K", "coeffs": [3.9644918263777202, 0.0020596769963902215, 8.674853780374631e-05, -1.450839919461119e-07, 7.838009270341474e-11, -49232008.066253, 7.365433669817705]}, {"name": "polynomial2", "class": "NASAPolynomial", "Tmin_value": 477.25150837589547, "Tmin_units": "K", "Tmax_value": 3000.0, "Tmax_units": "K", "coeffs": [-0.2016346126607574, 0.03684948174336166, -2.2193862153022103e-05, 6.534948821102615e-09, -7.488372760157006e-13, -49231608.95215794, 24.398107945208505]}]

>  <H298_value>  (2) 
-97830.61157155824

>  <H298_units>  (2) 
kcal/mol

>  <S298_value>  (2) 
66.15772377359508

>  <S298_units>  (2) 
cal/(mol*K)

>  <Cp_T_value_list>  (2) 
[18.098233407620363, 22.632858336014493, 26.717409141232952, 30.270647037570512, 35.994368828752485, 40.221251390017414, 46.50234453691136, 49.720054530985024, 51.45868146938158]

>  <Cp_T_units>  (2) 
cal/(mol*K)

>  <T_list>  (2) 
[300.0, 400.0, 500.0, 600.0, 800.0, 1000.0, 1500.0, 2000.0, 2400.0]

>  <T_units>  (2) 
K

>  <yaml_path>  (2) 
/home/calvin/Dropbox/PersonalFolders/Calvin/HAb_Converged/rxn_1276/output/Species/rxn_1276_C=CC=C/rxn_1276_C=CC=C.yml

>  <frequencies_cm1>  (2) 
[162.86429083444, 299.37995899604, 518.85567680856, 535.67292385724, 782.5273121405999, 895.6128263903599, 951.29034336492, 952.5882035904, 1000.9317802431998, 1006.4047675432399, 1052.23502756892, 1221.82209703164, 1311.4568564135998, 1314.3066553213998, 1409.56547568044, 1464.2884816955202, 1663.07397273888, 1726.1678338590398, 3116.4851496875194, 3119.6920318319594, 3127.2663166399198, 3132.3341518060793, 3211.3044829860796, 3211.503625560359]

>  <ZPE_kJmol>  (2) 
222.43148839891296

>  <E_elec_kJmol>  (2) 
-409560.6010908368

>  <E0_minus_Eelec_plus_ZPE_kJmol>  (2) 
0.0

>  <rxn>  (2) 
rxn_1276

>  <species_type>  (2) 
p0

>  <species_folder>  (2) 
rxn_1276_C=CC=C

>  <frequencies_cm1_list>  (2) 
[162.86429083444, 299.37995899604, 518.85567680856, 535.67292385724, 782.5273121405999, 895.6128263903599, 951.29034336492, 952.5882035904, 1000.9317802431998, 1006.4047675432399, 1052.23502756892, 1221.82209703164, 1311.4568564135998, 1314.3066553213998, 1409.56547568044, 1464.2884816955202, 1663.07397273888, 1726.1678338590398, 3116.4851496875194, 3119.6920318319594, 3127.2663166399198, 3132.3341518060793, 3211.3044829860796, 3211.503625560359]

>  <E0_kJmol>  (2) 
-409338

>  <H298_kJmol>  (2) 
-409323

$$$$

     RDKit          3D

 19 17  0  0  0  0  0  0  0  0999 V2000
   -2.0189    0.0761   -2.1956 C   0  0  0  0  0  0  0  0  0  1  0  0
   -1.7197    0.3620   -1.0681 C   0  0  0  0  0  0  0  0  0  2  0  0
   -1.3066    0.6885    0.2678 C   0  0  0  0  0  0  0  0  0  3  0  0
   -0.7240    2.0772    0.4564 C   0  0  0  0  0  0  0  0  0  4  0  0
   -2.2998   -0.1754   -3.1898 H   0  0  0  0  0  0  0  0  0  5  0  0
   -0.3906   -0.1063    0.5789 H   0  0  0  0  0  0  0  0  0  6  0  0
   -2.0812    0.4495    0.9977 H   0  0  0  0  0  0  0  0  0  7  0  0
   -1.4720    2.8477    0.2592 H   0  0  0  0  0  0  0  0  0  8  0  0
   -0.3642    2.1971    1.4788 H   0  0  0  0  0  0  0  0  0  9  0  0
    0.1145    2.2373   -0.2222 H   0  0  0  0  0  0  0  0  0 10  0  0
    0.5417   -1.3507    2.3132 C   0  0  0  0  0  0  0  0  0 11  0  0
    0.7293   -0.8773    1.0986 C   0  0  0  0  0  3  0  0  0 12  0  0
    1.8687   -0.9346    0.2134 C   0  0  0  0  0  0  0  0  0 13  0  0
    1.8654   -0.5180   -1.0492 C   0  0  0  0  0  0  0  0  0 14  0  0
   -0.3894   -1.2005    2.8480 H   0  0  0  0  0  0  0  0  0 15  0  0
    1.3151   -1.9204    2.8259 H   0  0  0  0  0  0  0  0  0 16  0  0
    2.7810   -1.3519    0.6401 H   0  0  0  0  0  0  0  0  0 17  0  0
    2.7544   -0.5897   -1.6620 H   0  0  0  0  0  0  0  0  0 18  0  0
    0.9739   -0.1071   -1.5085 H   0  0  0  0  0  0  0  0  0 19  0  0
  1  5  1  0
  1  2  1  0
  2  3  1  0
  3  4  1  0
  3  6  1  0
  3  7  1  0
  4  8  1  0
  4  9  1  0
  4 10  1  0
 11 16  1  0
 11 15  1  0
 11 12  1  0
 12 13  1  0
 13 17  1  0
 13 14  1  0
 14 18  1  0
 14 19  1  0
M  RAD  1  12   2
M  END
>  <rmg_smiles>  (3) 
[CH2][C][CH][CH2].[CH]CCC

>  <rmg_adjacency_list>  (3) 
multiplicity 2
1  C u0 p0 c0 {2,S} {6,S} {9,S} {10,S}
2  C u0 p0 c0 {1,S} {11,S} {12,S} {13,S}
3  C u0 p0 c0 {4,S} {7,S} {14,S}
4  C u0 p0 c0 {3,S} {15,S} {16,S}
5  C u0 p0 c0 {7,S} {17,S} {18,S}
6  C u0 p1 c0 {1,S} {8,S}
7  C u1 p1 c0 {3,S} {5,S}
8  C u0 p1 c0 {6,S} {19,S}
9  H u0 p0 c0 {1,S}
10 H u0 p0 c0 {1,S}
11 H u0 p0 c0 {2,S}
12 H u0 p0 c0 {2,S}
13 H u0 p0 c0 {2,S}
14 H u0 p0 c0 {3,S}
15 H u0 p0 c0 {4,S}
16 H u0 p0 c0 {4,S}
17 H u0 p0 c0 {5,S}
18 H u0 p0 c0 {5,S}
19 H u0 p0 c0 {8,S}


>  <multiplicity>  (3) 
2

>  <reaction>  (3) 
rxn_1276

>  <type>  (3) 
ts

>  <role_mapnums>  (3) 
{"*2": 6, "*1": 3, "*3": 12, "*0": 2, "*4": 13}

>  <role_mapidx>  (3) 
{"*2": 5, "*1": 2, "*3": 11, "*0": 1, "*4": 12}

>  <ordered_mapped_smiles>  (3) 
[CH2:1]([CH2:2][C:3]([C:4]([H:8])([H:9])[H:10])([H:6])[H:7])[H:5].[CH:11]([CH:12][CH:13]([CH:14]([H:18])[H:19])[H:17])([H:15])[H:16]

>  <mol_properties>  (3) 
{"1": {"label": "*0", "atom_type": "C2s"}, "2": {"label": "*1", "atom_type": "Cs"}, "5": {"label": "*2", "atom_type": "H0"}, "11": {"label": "*3", "atom_type": "C2s"}, "12": {"label": "*4", "atom_type": "Cs"}}

>  <level_of_theory>  (3) 
wb97xd/def2tzvp

>  <lot_method>  (3) 
wb97xd

>  <lot_basis>  (3) 
def2tzvp

>  <spin_multiplicity>  (3) 
2.0

>  <optical_isomers>  (3) 
2.0

>  <modes>  (3) 
IdealGasTranslation(mass=(107.086, 'amu')),         NonlinearRotor(             inertia = ([219.774, 415.936, 498.254

>  <frequency_value>  (3) 
-1467.64

>  <frequency_units>  (3) 
cm^-1

>  <frequency_list>  (3) 
unknown

>  <arkane_path>  (3) 
/home/calvin/Dropbox/PersonalFolders/Calvin/HAb_Converged/rxn_1276/output/rxns/TS0/arkane/output.py

>  <path_exists>  (3) 
True

>  <E0_value>  (3) 
-816846.0

>  <E0_units>  (3) 
kJ/mol

>  <thermo_class>  (3) 
unknown

>  <Cp0_value>  (3) 
unknown

>  <Cp0_units>  (3) 
unknown

>  <CpInf_value>  (3) 
unknown

>  <CpInf_units>  (3) 
unknown

>  <Tmin_value>  (3) 
unknown

>  <Tmin_units>  (3) 
unknown

>  <Tmax_value>  (3) 
unknown

>  <Tmax_units>  (3) 
unknown

>  <polynomials>  (3) 
unknown

>  <H298_value>  (3) 
unknown

>  <H298_units>  (3) 
unknown

>  <S298_value>  (3) 
unknown

>  <S298_units>  (3) 
unknown

>  <Cp_T_value_list>  (3) 
unknown

>  <Cp_T_units>  (3) 
unknown

>  <T_list>  (3) 
unknown

>  <T_units>  (3) 
unknown

>  <yaml_path>  (3) 
unknown

>  <frequencies_cm1>  (3) 
unknown

>  <ZPE_kJmol>  (3) 
unknown

>  <E_elec_kJmol>  (3) 
unknown

>  <E0_minus_Eelec_plus_ZPE_kJmol>  (3) 
unknown

>  <rxn>  (3) 
unknown

>  <species_type>  (3) 
unknown

>  <species_folder>  (3) 
unknown

>  <frequencies_cm1_list>  (3) 
[]

>  <ts_imag_freq_cm1>  (3) 
-1485.4658

>  <ts_freq_out_path>  (3) 
/home/calvin/Dropbox/PersonalFolders/Calvin/HAb_Converged/rxn_1276/output/rxns/TS0/geometry/freq.out

>  <E0_kJmol>  (3) 
-816846

>  <H298_kJmol>  (3) 
unknown

$$$$

     RDKit          3D

  9  8  0  0  0  0  0  0  0  0999 V2000
    2.3038   -0.0269    0.1590 C   0  0  0  0  0  0  0  0  0  1  0  0
    1.1426    0.1377   -0.1648 C   0  0  0  0  0  0  0  0  0  2  0  0
   -0.1694    0.3175   -0.5203 C   0  0  0  0  0  3  0  0  0  3  0  0
   -1.3163   -0.1910    0.2856 C   0  0  0  0  0  0  0  0  0  4  0  0
    3.3199   -0.1683    0.4378 H   0  0  0  0  0  0  0  0  0  5  0  0
   -0.3786    0.8584   -1.4360 H   0  0  0  0  0  0  0  0  0  6  0  0
   -1.9694    0.6309    0.5951 H   0  0  0  0  0  0  0  0  0  7  0  0
   -1.9325   -0.8770   -0.3039 H   0  0  0  0  0  0  0  0  0  8  0  0
   -0.9753   -0.7144    1.1774 H   0  0  0  0  0  0  0  0  0  9  0  0
  1  5  1  0
  1  2  1  0
  2  3  1  0
  3  4  1  0
  3  6  1  0
  4  8  1  0
  4  9  1  0
  4  7  1  0
M  RAD  1   3   2
M  END
>  <rmg_smiles>  (4) 
[CH]C[CH]C

>  <rmg_adjacency_list>  (4) 
multiplicity 2
1 C u0 p0 c0 {2,S} {5,S} {6,S} {7,S}
2 C u1 p0 c0 {1,S} {3,S} {8,S}
3 C u0 p1 c0 {2,S} {4,S}
4 C u0 p1 c0 {3,S} {9,S}
5 H u0 p0 c0 {1,S}
6 H u0 p0 c0 {1,S}
7 H u0 p0 c0 {1,S}
8 H u0 p0 c0 {2,S}
9 H u0 p0 c0 {4,S}


>  <multiplicity>  (4) 
2

>  <reaction>  (4) 
rxn_1276

>  <type>  (4) 
r1

>  <role_mapnums>  (4) 
{}

>  <role_mapidx>  (4) 
{}

>  <ordered_mapped_smiles>  (4) 
[CH2:1]([CH2:2][C:3]([C:4]([H:7])([H:8])[H:9])[H:6])[H:5]

>  <level_of_theory>  (4) 
wb97xd/def2tzvp

>  <lot_method>  (4) 
wb97xd

>  <lot_basis>  (4) 
def2tzvp

>  <spin_multiplicity>  (4) 
2.0

>  <optical_isomers>  (4) 
1.0

>  <modes>  (4) 
IdealGasTranslation(mass=(53.0391, 'amu')),         NonlinearRotor(             inertia = ([13.0163, 113.224, 123.133

>  <frequency_value>  (4) 
unknown

>  <frequency_units>  (4) 
unknown

>  <frequency_list>  (4) 
unknown

>  <arkane_path>  (4) 
/home/calvin/Dropbox/PersonalFolders/Calvin/HAb_Converged/rxn_1276/output/Species/rxn_1276_CtC[CH]C/arkane/output.py

>  <path_exists>  (4) 
True

>  <E0_value>  (4) 
-407611.0180987149

>  <E0_units>  (4) 
kJ/mol

>  <thermo_class>  (4) 
NASA

>  <Cp0_value>  (4) 
33.257888

>  <Cp0_units>  (4) 
J/(mol*K)

>  <CpInf_value>  (4) 
207.8618

>  <CpInf_units>  (4) 
J/(mol*K)

>  <Tmin_value>  (4) 
10.0

>  <Tmin_units>  (4) 
K

>  <Tmax_value>  (4) 
3000.0

>  <Tmax_units>  (4) 
K

>  <polynomials>  (4) 
[{"name": "polynomial1", "class": "NASAPolynomial", "Tmin_value": 10.0, "Tmin_units": "K", "Tmax_value": 225.12244092476377, "Tmax_units": "K", "coeffs": [3.9266130103725434, 0.006751552972290672, 0.0001283541194316844, -4.2549688859148007e-07, 4.774737524189803e-10, -49024283.39050682, 9.03931398875942]}, {"name": "polynomial2", "class": "NASAPolynomial", "Tmin_value": 225.12244092476377, "Tmin_units": "K", "Tmax_value": 3000.0, "Tmax_units": "K", "coeffs": [2.698793800089887, 0.02856763785346583, -1.700774111948388e-05, 4.9718456847290095e-09, -5.66009400316375e-13, -49024228.10872656, 13.132014034873661]}]

>  <H298_value>  (4) 
-97417.42510508596

>  <H298_units>  (4) 
kcal/mol

>  <S298_value>  (4) 
72.15152284270778

>  <S298_units>  (4) 
cal/(mol*K)

>  <Cp_T_value_list>  (4) 
[19.609840418917145, 23.266846927668503, 26.46319689496793, 29.246023227567047, 33.746139284951916, 37.090269030960386, 42.123590532288944, 44.75530859912038, 46.19956450688901]

>  <Cp_T_units>  (4) 
cal/(mol*K)

>  <T_list>  (4) 
[300.0, 400.0, 500.0, 600.0, 800.0, 1000.0, 1500.0, 2000.0, 2400.0]

>  <T_units>  (4) 
K

>  <yaml_path>  (4) 
/home/calvin/Dropbox/PersonalFolders/Calvin/HAb_Converged/rxn_1276/output/Species/rxn_1276_CtC[CH]C/rxn_1276_CtCCHC.yml

>  <frequencies_cm1>  (4) 
[83.4682065646, 211.55121675324, 392.1460636839199, 478.7318815838, 554.46786267808, 595.8689171723599, 660.0408949877599, 865.1234115695598, 998.98842339764, 1092.3794237496397, 1143.49726247172, 1380.42198998236, 1394.47184194708, 1461.2464071987597, 1480.32289241772, 2005.2970531463998, 2994.3558157713196, 3043.5921005157197, 3109.55636149964, 3150.5453968747197, 3427.4497129183997]

>  <ZPE_kJmol>  (4) 
182.57126464434097

>  <E_elec_kJmol>  (4) 
-407793.5893633592

>  <E0_minus_Eelec_plus_ZPE_kJmol>  (4) 
0.0

>  <rxn>  (4) 
rxn_1276

>  <species_type>  (4) 
p1

>  <species_folder>  (4) 
rxn_1276_CtC[CH]C

>  <frequencies_cm1_list>  (4) 
[83.4682065646, 211.55121675324, 392.1460636839199, 478.7318815838, 554.46786267808, 595.8689171723599, 660.0408949877599, 865.1234115695598, 998.98842339764, 1092.3794237496397, 1143.49726247172, 1380.42198998236, 1394.47184194708, 1461.2464071987597, 1480.32289241772, 2005.2970531463998, 2994.3558157713196, 3043.5921005157197, 3109.55636149964, 3150.5453968747197, 3427.4497129183997]

>  <E0_kJmol>  (4) 
-407611

>  <H298_kJmol>  (4) 
-407595

$$$$

     RDKit          3D

  9  8  0  0  0  0  0  0  0  0999 V2000
    1.8963   -0.1405   -0.2150 C   0  0  0  0  0  0  0  0  0  1  0  0
    0.6340    0.1486   -0.2254 C   0  0  0  0  0  3  0  0  0  2  0  0
   -0.6770    0.4501   -0.2373 C   0  0  0  0  0  0  0  0  0  3  0  0
   -1.6600   -0.2303    0.4662 C   0  0  0  0  0  0  0  0  0  4  0  0
    2.3274   -0.8354   -0.9313 H   0  0  0  0  0  0  0  0  0  5  0  0
    2.5751    0.2988    0.5117 H   0  0  0  0  0  0  0  0  0  6  0  0
   -0.9723    1.2966   -0.8520 H   0  0  0  0  0  0  0  0  0  7  0  0
   -2.6934    0.0777    0.4015 H   0  0  0  0  0  0  0  0  0  8  0  0
   -1.4140   -1.0782    1.0904 H   0  0  0  0  0  0  0  0  0  9  0  0
  1  5  1  0
  1  6  1  0
  1  2  1  0
  2  3  1  0
  3  4  1  0
  3  7  1  0
  4  8  1  0
  4  9  1  0
M  RAD  1   2   2
M  END
>  <rmg_smiles>  (5) 
[CH2][C][CH][CH2]

>  <rmg_adjacency_list>  (5) 
multiplicity 2
1 C u0 p0 c0 {2,S} {4,S} {5,S}
2 C u0 p0 c0 {1,S} {6,S} {7,S}
3 C u0 p0 c0 {4,S} {8,S} {9,S}
4 C u1 p1 c0 {1,S} {3,S}
5 H u0 p0 c0 {1,S}
6 H u0 p0 c0 {2,S}
7 H u0 p0 c0 {2,S}
8 H u0 p0 c0 {3,S}
9 H u0 p0 c0 {3,S}


>  <multiplicity>  (5) 
2

>  <reaction>  (5) 
rxn_1276

>  <type>  (5) 
r2

>  <role_mapnums>  (5) 
{}

>  <role_mapidx>  (5) 
{}

>  <ordered_mapped_smiles>  (5) 
[CH:1]([CH:2][CH:3]([CH:4]([H:8])[H:9])[H:7])([H:5])[H:6]

>  <level_of_theory>  (5) 
wb97xd/def2tzvp

>  <lot_method>  (5) 
wb97xd

>  <lot_basis>  (5) 
def2tzvp

>  <spin_multiplicity>  (5) 
2.0

>  <optical_isomers>  (5) 
1.0

>  <modes>  (5) 
IdealGasTranslation(mass=(53.0391, 'amu')),         NonlinearRotor(             inertia = ([12.0347, 113.266, 121.844

>  <frequency_value>  (5) 
unknown

>  <frequency_units>  (5) 
unknown

>  <frequency_list>  (5) 
unknown

>  <arkane_path>  (5) 
/home/calvin/Dropbox/PersonalFolders/Calvin/HAb_Converged/rxn_1276/output/Species/rxn_1276_C=[C]C=C/arkane/output.py

>  <path_exists>  (5) 
True

>  <E0_value>  (5) 
-407618.73102202936

>  <E0_units>  (5) 
kJ/mol

>  <thermo_class>  (5) 
NASA

>  <Cp0_value>  (5) 
33.257888

>  <Cp0_units>  (5) 
J/(mol*K)

>  <CpInf_value>  (5) 
207.8618

>  <CpInf_units>  (5) 
J/(mol*K)

>  <Tmin_value>  (5) 
10.0

>  <Tmin_units>  (5) 
K

>  <Tmax_value>  (5) 
3000.0

>  <Tmax_units>  (5) 
K

>  <polynomials>  (5) 
[{"name": "polynomial1", "class": "NASAPolynomial", "Tmin_value": 10.0, "Tmin_units": "K", "Tmax_value": 513.96992949071, "Tmax_units": "K", "coeffs": [3.9420802999541826, 0.0035685760014192327, 9.465791812405604e-05, -1.8686526671215408e-07, 1.1507173469765572e-10, -49025207.15718319, 8.65621190884103]}, {"name": "polynomial2", "class": "NASAPolynomial", "Tmin_value": 513.96992949071, "Tmin_units": "K", "Tmax_value": 3000.0, "Tmax_units": "K", "coeffs": [2.0283894812979866, 0.030453216730392172, -1.8799715383868938e-05, 5.69276117666148e-09, -6.699501956082314e-13, -49025168.8245439, 15.074146021629948]}]

>  <H298_value>  (5) 
-97419.52636783152

>  <H298_units>  (5) 
kcal/mol

>  <S298_value>  (5) 
69.47182773714773

>  <S298_units>  (5) 
cal/(mol*K)

>  <Cp_T_value_list>  (5) 
[18.71667250989835, 22.85533281432161, 26.28015598227693, 29.162718122858536, 33.78137212963757, 37.17010503303923, 42.188992301862434, 44.829088783976054, 46.30020231473576]

>  <Cp_T_units>  (5) 
cal/(mol*K)

>  <T_list>  (5) 
[300.0, 400.0, 500.0, 600.0, 800.0, 1000.0, 1500.0, 2000.0, 2400.0]

>  <T_units>  (5) 
K

>  <yaml_path>  (5) 
/home/calvin/Dropbox/PersonalFolders/Calvin/HAb_Converged/rxn_1276/output/Species/rxn_1276_C=[C]C=C/rxn_1276_C=CC=C.yml

>  <frequencies_cm1>  (5) 
[209.82760343791998, 213.04821955299997, 498.83154761543994, 525.2763080827599, 574.87654304912, 748.94088694048, 893.75874035396, 905.4944182658398, 936.5057239709599, 975.15311735192, 1080.3828003955998, 1184.87084902472, 1365.78157728012, 1440.54244645896, 1485.45939743708, 1902.75236136284, 3071.21111547276, 3118.0645563111198, 3138.67237925644, 3141.51531117892, 3241.1690021427603]

>  <ZPE_kJmol>  (5) 
183.34053407098105

>  <E_elec_kJmol>  (5) 
-407802.07155610033

>  <E0_minus_Eelec_plus_ZPE_kJmol>  (5) 
0.0

>  <rxn>  (5) 
rxn_1276

>  <species_type>  (5) 
r1

>  <species_folder>  (5) 
rxn_1276_C=[C]C=C

>  <frequencies_cm1_list>  (5) 
[209.82760343791998, 213.04821955299997, 498.83154761543994, 525.2763080827599, 574.87654304912, 748.94088694048, 893.75874035396, 905.4944182658398, 936.5057239709599, 975.15311735192, 1080.3828003955998, 1184.87084902472, 1365.78157728012, 1440.54244645896, 1485.45939743708, 1902.75236136284, 3071.21111547276, 3118.0645563111198, 3138.67237925644, 3141.51531117892, 3241.1690021427603]

>  <E0_kJmol>  (5) 
-407619

>  <H298_kJmol>  (5) 
-407603

$$$$
