
     RDKit          3D

 15 14  0  0  0  0  0  0  0  0999 V2000
    0.5024    0.4326   -1.4588 C   0  0  0  0  0  0  0  0  0  1  0  0
    0.3766    0.4204    0.0480 C   0  0  0  0  0  0  0  0  0  2  0  0
    0.2579    1.7963    0.6644 C   0  0  0  0  0  0  0  0  0  3  0  0
   -0.6692   -0.5486    0.5675 C   0  0  0  0  0  0  0  0  0  4  0  0
   -0.4594   -1.8802    0.1514 O   0  0  0  0  0  0  0  0  0  5  0  0
    1.3885    0.9863   -1.7747 H   0  0  0  0  0  0  0  0  0  6  0  0
   -0.3719    0.9147   -1.9104 H   0  0  0  0  0  0  0  0  0  7  0  0
    0.5626   -0.5805   -1.8565 H   0  0  0  0  0  0  0  0  0  8  0  0
    1.3124    0.0069    0.4239 H   0  0  0  0  0  0  0  0  0  9  0  0
   -0.6790    2.2770    0.3619 H   0  0  0  0  0  0  0  0  0 10  0  0
    1.0768    2.4415    0.3418 H   0  0  0  0  0  0  0  0  0 11  0  0
    0.2705    1.7503    1.7555 H   0  0  0  0  0  0  0  0  0 12  0  0
   -0.7124   -0.4838    1.6630 H   0  0  0  0  0  0  0  0  0 13  0  0
   -1.6570   -0.2659    0.1875 H   0  0  0  0  0  0  0  0  0 14  0  0
    0.3985   -2.1600    0.4821 H   0  0  0  0  0  0  0  0  0 15  0  0
  1  8  1  0
  1  7  1  0
  1  6  1  0
  1  2  1  0
  2  9  1  0
  2  3  1  0
  2  4  1  0
  3 11  1  0
  3 12  1  0
  3 10  1  0
  4 14  1  0
  4 13  1  0
  4  5  1  0
  5 15  1  0
M  END
>  <rmg_smiles>  (1) 
CC(C)CO

>  <rmg_adjacency_list>  (1) 
1  O u0 p2 c0 {3,S} {15,S}
2  C u0 p0 c0 {3,S} {4,S} {5,S} {6,S}
3  C u0 p0 c0 {1,S} {2,S} {7,S} {8,S}
4  C u0 p0 c0 {2,S} {9,S} {10,S} {11,S}
5  C u0 p0 c0 {2,S} {12,S} {13,S} {14,S}
6  H u0 p0 c0 {2,S}
7  H u0 p0 c0 {3,S}
8  H u0 p0 c0 {3,S}
9  H u0 p0 c0 {4,S}
10 H u0 p0 c0 {4,S}
11 H u0 p0 c0 {4,S}
12 H u0 p0 c0 {5,S}
13 H u0 p0 c0 {5,S}
14 H u0 p0 c0 {5,S}
15 H u0 p0 c0 {1,S}


>  <multiplicity>  (1) 
1

>  <reaction>  (1) 
rxn_420

>  <type>  (1) 
r1h

>  <role_mapnums>  (1) 
{"r1h_a": 2, "r1h_h": 9}

>  <role_mapidx>  (1) 
{"r1h_a": 1, "r1h_h": 8}

>  <ordered_mapped_smiles>  (1) 
[C:1]([C:2]([C:3]([H:10])([H:11])[H:12])([C:4]([O:5][H:15])([H:13])[H:14])[H:9])([H:6])([H:7])[H:8]

>  <mol_properties>  (1) 
{"1": {"label": "donator", "atom_type": "Cs"}, "8": {"label": "d_hydrogen", "atom_type": "H0"}}

>  <level_of_theory>  (1) 
wb97xd/def2tzvp

>  <lot_method>  (1) 
wb97xd

>  <lot_basis>  (1) 
def2tzvp

>  <spin_multiplicity>  (1) 
1.0

>  <optical_isomers>  (1) 
2.0

>  <modes>  (1) 
IdealGasTranslation(mass=(74.0732, 'amu')),         NonlinearRotor(             inertia = ([66.603, 143.905, 189.515

>  <frequency_value>  (1) 
unknown

>  <frequency_units>  (1) 
unknown

>  <frequency_list>  (1) 
unknown

>  <arkane_path>  (1) 
/home/calvin/Dropbox/PersonalFolders/Calvin/HAb_Converged/rxn_420/output/Species/rxn_420_CC[C]CO/arkane/output.py

>  <path_exists>  (1) 
True

>  <E0_value>  (1) 
-613201.798563127

>  <E0_units>  (1) 
kJ/mol

>  <thermo_class>  (1) 
NASA

>  <Cp0_value>  (1) 
33.257888

>  <Cp0_units>  (1) 
J/(mol*K)

>  <CpInf_value>  (1) 
357.522296

>  <CpInf_units>  (1) 
J/(mol*K)

>  <Tmin_value>  (1) 
10.0

>  <Tmin_units>  (1) 
K

>  <Tmax_value>  (1) 
3000.0

>  <Tmax_units>  (1) 
K

>  <polynomials>  (1) 
[{"name": "polynomial1", "class": "NASAPolynomial", "Tmin_value": 10.0, "Tmin_units": "K", "Tmax_value": 575.0651176416371, "Tmax_units": "K", "coeffs": [3.712805799436365, 0.02341794423636385, 4.945520881208784e-05, -8.422411516035852e-08, 3.9345456013228885e-11, -73751136.90729754, 10.481383297442903]}, {"name": "polynomial2", "class": "NASAPolynomial", "Tmin_value": 575.0651176416371, "Tmin_units": "K", "Tmax_value": 3000.0, "Tmax_units": "K", "coeffs": [-0.6878246335024606, 0.05402765028160735, -3.0387394291557736e-05, 8.336812494957577e-09, -8.939885093345157e-13, -73750630.77899487, 29.27712262817248]}]

>  <H298_value>  (1) 
-146553.90003462895

>  <H298_units>  (1) 
kcal/mol

>  <S298_value>  (1) 
79.77174717591569

>  <S298_units>  (1) 
cal/(mol*K)

>  <Cp_T_value_list>  (1) 
[26.298303224673802, 33.0069380139673, 39.18106842386457, 44.660864775466386, 53.63198804085297, 60.401649014178936, 70.73051971901154, 75.92834368294982, 78.56390633588433]

>  <Cp_T_units>  (1) 
cal/(mol*K)

>  <T_list>  (1) 
[300.0, 400.0, 500.0, 600.0, 800.0, 1000.0, 1500.0, 2000.0, 2400.0]

>  <T_units>  (1) 
K

>  <yaml_path>  (1) 
/home/calvin/Dropbox/PersonalFolders/Calvin/HAb_Converged/rxn_420/output/Species/rxn_420_CC[C]CO/rxn_420_CCCCO.yml

>  <frequencies_cm1>  (1) 
[130.82980431664, 216.90746530284, 234.24660323583998, 266.73431078476, 284.49233482228, 352.62656316731994, 430.94453074191995, 496.53797451855996, 825.04768524204, 903.1871111983199, 929.7966793133199, 953.3298380049599, 972.0423730019598, 1079.3527525975999, 1116.63361589988, 1149.4372047735199, 1195.51467627072, 1246.91406139092, 1321.76420137892, 1364.46311609868, 1379.29580438988, 1394.3345022406797, 1400.81006939744, 1419.04878240736, 1474.01899989396, 1475.3855299726397, 1489.2293723777598, 1494.17360180816, 1499.15903315048, 2968.2269366287196, 2974.66816885888, 3005.13698272372, 3008.8176868552396, 3047.7397596489996, 3073.490954599, 3077.9132931450795, 3086.88844295832, 3102.6138393411197, 3839.6611077073594]

>  <ZPE_kJmol>  (1) 
356.9742425885658

>  <E_elec_kJmol>  (1) 
-613558.7728057157

>  <E0_minus_Eelec_plus_ZPE_kJmol>  (1) 
0.0

>  <rxn>  (1) 
rxn_420

>  <species_type>  (1) 
r1

>  <species_folder>  (1) 
rxn_420_CC[C]CO

>  <frequencies_cm1_list>  (1) 
[130.82980431664, 216.90746530284, 234.24660323583998, 266.73431078476, 284.49233482228, 352.62656316731994, 430.94453074191995, 496.53797451855996, 825.04768524204, 903.1871111983199, 929.7966793133199, 953.3298380049599, 972.0423730019598, 1079.3527525975999, 1116.63361589988, 1149.4372047735199, 1195.51467627072, 1246.91406139092, 1321.76420137892, 1364.46311609868, 1379.29580438988, 1394.3345022406797, 1400.81006939744, 1419.04878240736, 1474.01899989396, 1475.3855299726397, 1489.2293723777598, 1494.17360180816, 1499.15903315048, 2968.2269366287196, 2974.66816885888, 3005.13698272372, 3008.8176868552396, 3047.7397596489996, 3073.490954599, 3077.9132931450795, 3086.88844295832, 3102.6138393411197, 3839.6611077073594]

>  <E0_kJmol>  (1) 
-613202

>  <H298_kJmol>  (1) 
-613182

$$$$

     RDKit          3D

  6  5  0  0  0  0  0  0  0  0999 V2000
   -0.2177    0.4387    0.4295 C   0  0  0  0  0  0  0  0  0  1  0  0
    0.2467   -0.4540   -0.4146 C   0  0  0  0  0  0  0  0  0  2  0  0
    0.1742    0.7084    1.4035 H   0  0  0  0  0  0  0  0  0  3  0  0
    1.1351   -1.0455   -0.2023 H   0  0  0  0  0  0  0  0  0  4  0  0
   -0.2339   -0.6331   -1.3726 H   0  0  0  0  0  0  0  0  0  5  0  0
   -1.1078    0.9668    0.1073 H   0  0  0  0  0  0  0  0  0  6  0  0
  1  3  1  0
  1  6  1  0
  1  2  1  0
  2  4  1  0
  2  5  1  0
M  END
>  <rmg_smiles>  (2) 
[CH2][CH2]

>  <rmg_adjacency_list>  (2) 
1 C u0 p0 c0 {2,S} {3,S} {6,S}
2 C u0 p0 c0 {1,S} {4,S} {5,S}
3 H u0 p0 c0 {1,S}
4 H u0 p0 c0 {2,S}
5 H u0 p0 c0 {2,S}
6 H u0 p0 c0 {1,S}


>  <multiplicity>  (2) 
1

>  <reaction>  (2) 
rxn_420

>  <type>  (2) 
r2h

>  <role_mapnums>  (2) 
{"r2h_a": 1, "r2h_h": 6}

>  <role_mapidx>  (2) 
{"r2h_a": 0, "r2h_h": 5}

>  <ordered_mapped_smiles>  (2) 
[CH:1]([CH:2]([H:4])[H:5])([H:3])[H:6]

>  <mol_properties>  (2) 
{"0": {"label": "acceptor", "atom_type": "Cs"}, "5": {"label": "a_hydrogen", "atom_type": "H0"}}

>  <level_of_theory>  (2) 
wb97xd/def2tzvp

>  <lot_method>  (2) 
wb97xd

>  <lot_basis>  (2) 
def2tzvp

>  <spin_multiplicity>  (2) 
1.0

>  <optical_isomers>  (2) 
1.0

>  <modes>  (2) 
IdealGasTranslation(mass=(28.0313, 'amu')),         NonlinearRotor(             inertia = ([3.4313, 16.5733, 20.0046

>  <frequency_value>  (2) 
unknown

>  <frequency_units>  (2) 
unknown

>  <frequency_list>  (2) 
unknown

>  <arkane_path>  (2) 
/home/calvin/Dropbox/PersonalFolders/Calvin/HAb_Converged/rxn_420/output/Species/rxn_420_C=C/arkane/output.py

>  <path_exists>  (2) 
True

>  <E0_value>  (2) 
-206204.08464717612

>  <E0_units>  (2) 
kJ/mol

>  <thermo_class>  (2) 
NASA

>  <Cp0_value>  (2) 
33.257888

>  <Cp0_units>  (2) 
J/(mol*K)

>  <CpInf_value>  (2) 
133.031552

>  <CpInf_units>  (2) 
J/(mol*K)

>  <Tmin_value>  (2) 
10.0

>  <Tmin_units>  (2) 
K

>  <Tmax_value>  (2) 
3000.0

>  <Tmax_units>  (2) 
K

>  <polynomials>  (2) 
[{"name": "polynomial1", "class": "NASAPolynomial", "Tmin_value": 10.0, "Tmin_units": "K", "Tmax_value": 769.5217501758626, "Tmax_units": "K", "coeffs": [4.102594925382579, -0.006879522193259702, 5.062107249177076e-05, -5.972223289849955e-08, 2.3228029141840905e-11, -24800625.606387716, 3.2220821404236424]}, {"name": "polynomial2", "class": "NASAPolynomial", "Tmin_value": 769.5217501758626, "Tmin_units": "K", "Tmax_value": 3000.0, "Tmax_units": "K", "coeffs": [0.4501873055486705, 0.01806199469136872, -9.606651718966085e-06, 2.51372192351987e-09, -2.587294024527882e-13, -24800239.83662215, 18.740105419928828]}]

>  <H298_value>  (2) 
-49281.46687172266

>  <H298_units>  (2) 
kcal/mol

>  <S298_value>  (2) 
52.28638692235232

>  <S298_units>  (2) 
cal/(mol*K)

>  <Cp_T_value_list>  (2) 
[10.27441708697483, 12.365536101969841, 14.515698252557122, 16.511337099494305, 19.738079638388314, 22.178263460277243, 26.036790662755205, 28.054735064109895, 29.07349068569704]

>  <Cp_T_units>  (2) 
cal/(mol*K)

>  <T_list>  (2) 
[300.0, 400.0, 500.0, 600.0, 800.0, 1000.0, 1500.0, 2000.0, 2400.0]

>  <T_units>  (2) 
K

>  <yaml_path>  (2) 
/home/calvin/Dropbox/PersonalFolders/Calvin/HAb_Converged/rxn_420/output/Species/rxn_420_C=C/rxn_420_C=C.yml

>  <frequencies_cm1>  (2) 
[832.94471836004, 977.0690062561998, 990.3016869678398, 1058.52518612204, 1234.34061127, 1375.2030811391598, 1460.7588512410398, 1695.25953293372, 3111.1769700351597, 3128.9967969405598, 3189.2477261382396, 3215.2736005010397]

>  <ZPE_kJmol>  (2) 
133.19882255210345

>  <E_elec_kJmol>  (2) 
-206337.28346972825

>  <E0_minus_Eelec_plus_ZPE_kJmol>  (2) 
0.0

>  <rxn>  (2) 
rxn_420

>  <species_type>  (2) 
p0

>  <species_folder>  (2) 
rxn_420_C=C

>  <frequencies_cm1_list>  (2) 
[832.94471836004, 977.0690062561998, 990.3016869678398, 1058.52518612204, 1234.34061127, 1375.2030811391598, 1460.7588512410398, 1695.25953293372, 3111.1769700351597, 3128.9967969405598, 3189.2477261382396, 3215.2736005010397]

>  <E0_kJmol>  (2) 
-206204

>  <H298_kJmol>  (2) 
-206194

$$$$

     RDKit          3D

 20 18  0  0  0  0  0  0  0  0999 V2000
    1.9067   -0.4401    0.7815 C   0  0  0  0  0  3  0  0  0  1  0  0
    2.3711   -1.3328   -0.0626 C   0  0  0  0  0  0  0  0  0  2  0  0
    2.2986   -0.1703    1.7555 H   0  0  0  0  0  0  0  0  0  3  0  0
    3.2595   -1.9243    0.1497 H   0  0  0  0  0  0  0  0  0  4  0  0
    1.8905   -1.5119   -1.0206 H   0  0  0  0  0  0  0  0  0  5  0  0
   -0.2410    0.7591   -1.5908 C   0  0  0  0  0  0  0  0  0  6  0  0
   -0.3668    0.7469   -0.0841 C   0  0  0  0  0  0  0  0  0  7  0  0
   -0.4855    2.1228    0.5324 C   0  0  0  0  0  0  0  0  0  8  0  0
   -1.4126   -0.2221    0.4355 C   0  0  0  0  0  0  0  0  0  9  0  0
   -1.2027   -1.5537    0.0194 O   0  0  0  0  0  0  0  0  0 10  0  0
    0.6451    1.3128   -1.9067 H   0  0  0  0  0  0  0  0  0 11  0  0
   -1.1153    1.2412   -2.0424 H   0  0  0  0  0  0  0  0  0 12  0  0
   -0.1808   -0.2540   -1.9885 H   0  0  0  0  0  0  0  0  0 13  0  0
    0.7027    0.2743    0.3456 H   0  0  0  0  0  0  0  0  0 14  0  0
   -1.4223    2.6035    0.2299 H   0  0  0  0  0  0  0  0  0 15  0  0
    0.3334    2.7680    0.2097 H   0  0  0  0  0  0  0  0  0 16  0  0
   -0.4729    2.0768    1.6235 H   0  0  0  0  0  0  0  0  0 17  0  0
   -1.4557   -0.1573    1.5310 H   0  0  0  0  0  0  0  0  0 18  0  0
   -2.4004    0.0606    0.0555 H   0  0  0  0  0  0  0  0  0 19  0  0
   -0.3449   -1.8335    0.3501 H   0  0  0  0  0  0  0  0  0 20  0  0
  1  3  1  0
  1  2  1  0
  2  4  1  0
  2  5  1  0
  6 13  1  0
  6  7  1  0
  6 11  1  0
  6 12  1  0
  7  9  1  0
  7 14  1  0
  7  8  1  0
  8 17  1  0
  8 15  1  0
  8 16  1  0
  9 10  1  0
  9 19  1  0
  9 18  1  0
 10 20  1  0
M  RAD  1   1   2
M  END
>  <rmg_smiles>  (3) 
CC(C)CO.[CH][CH2]

>  <rmg_adjacency_list>  (3) 
multiplicity 2
1  O u0 p2 c0 {3,S} {19,S}
2  C u0 p0 c0 {3,S} {4,S} {5,S} {8,S}
3  C u0 p0 c0 {1,S} {2,S} {9,S} {10,S}
4  C u0 p0 c0 {2,S} {11,S} {12,S} {13,S}
5  C u0 p0 c0 {2,S} {14,S} {15,S} {16,S}
6  C u0 p0 c0 {7,S} {17,S} {18,S}
7  C u1 p1 c0 {6,S} {20,S}
8  H u0 p0 c0 {2,S}
9  H u0 p0 c0 {3,S}
10 H u0 p0 c0 {3,S}
11 H u0 p0 c0 {4,S}
12 H u0 p0 c0 {4,S}
13 H u0 p0 c0 {4,S}
14 H u0 p0 c0 {5,S}
15 H u0 p0 c0 {5,S}
16 H u0 p0 c0 {5,S}
17 H u0 p0 c0 {6,S}
18 H u0 p0 c0 {6,S}
19 H u0 p0 c0 {1,S}
20 H u0 p0 c0 {7,S}


>  <multiplicity>  (3) 
2

>  <reaction>  (3) 
rxn_420

>  <type>  (3) 
ts

>  <role_mapnums>  (3) 
{"*2": 14, "*1": 7, "*3": 1, "*0": 9, "*4": 2}

>  <role_mapidx>  (3) 
{"*2": 13, "*1": 6, "*3": 0, "*0": 8, "*4": 1}

>  <ordered_mapped_smiles>  (3) 
[CH:1]([CH:2]([H:4])[H:5])[H:3].[C:6]([C:7]([C:8]([H:15])([H:16])[H:17])([C:9]([O:10][H:20])([H:18])[H:19])[H:14])([H:11])([H:12])[H:13]

>  <mol_properties>  (3) 
{"0": {"label": "*3", "atom_type": "C2s"}, "1": {"label": "*4", "atom_type": "Cs"}, "6": {"label": "*1", "atom_type": "Cs"}, "8": {"label": "*0", "atom_type": "Cs"}, "13": {"label": "*2", "atom_type": "H0"}}

>  <level_of_theory>  (3) 
wb97xd/def2tzvp

>  <lot_method>  (3) 
wb97xd

>  <lot_basis>  (3) 
def2tzvp

>  <spin_multiplicity>  (3) 
2.0

>  <optical_isomers>  (3) 
2.0

>  <modes>  (3) 
IdealGasTranslation(mass=(101.097, 'amu')),         NonlinearRotor(             inertia = ([194.756, 291.852, 358.773

>  <frequency_value>  (3) 
-1283.29

>  <frequency_units>  (3) 
cm^-1

>  <frequency_list>  (3) 
unknown

>  <arkane_path>  (3) 
/home/calvin/Dropbox/PersonalFolders/Calvin/HAb_Converged/rxn_420/output/rxns/TS0/arkane/output.py

>  <path_exists>  (3) 
True

>  <E0_value>  (3) 
-817625.0

>  <E0_units>  (3) 
kJ/mol

>  <thermo_class>  (3) 
unknown

>  <Cp0_value>  (3) 
unknown

>  <Cp0_units>  (3) 
unknown

>  <CpInf_value>  (3) 
unknown

>  <CpInf_units>  (3) 
unknown

>  <Tmin_value>  (3) 
unknown

>  <Tmin_units>  (3) 
unknown

>  <Tmax_value>  (3) 
unknown

>  <Tmax_units>  (3) 
unknown

>  <polynomials>  (3) 
unknown

>  <H298_value>  (3) 
unknown

>  <H298_units>  (3) 
unknown

>  <S298_value>  (3) 
unknown

>  <S298_units>  (3) 
unknown

>  <Cp_T_value_list>  (3) 
unknown

>  <Cp_T_units>  (3) 
unknown

>  <T_list>  (3) 
unknown

>  <T_units>  (3) 
unknown

>  <yaml_path>  (3) 
unknown

>  <frequencies_cm1>  (3) 
unknown

>  <ZPE_kJmol>  (3) 
unknown

>  <E_elec_kJmol>  (3) 
unknown

>  <E0_minus_Eelec_plus_ZPE_kJmol>  (3) 
unknown

>  <rxn>  (3) 
unknown

>  <species_type>  (3) 
unknown

>  <species_folder>  (3) 
unknown

>  <frequencies_cm1_list>  (3) 
[]

>  <ts_imag_freq_cm1>  (3) 
-1298.8753

>  <ts_freq_out_path>  (3) 
/home/calvin/Dropbox/PersonalFolders/Calvin/HAb_Converged/rxn_420/output/rxns/TS0/geometry/freq.out

>  <E0_kJmol>  (3) 
-817625

>  <H298_kJmol>  (3) 
unknown

$$$$

     RDKit          3D

 14 13  0  0  0  0  0  0  0  0999 V2000
   -0.0263    1.3824   -0.7006 C   0  0  0  0  0  0  0  0  0  1  0  0
   -0.2039   -0.0453   -0.3213 C   0  0  0  0  0  3  0  0  0  2  0  0
   -1.1121   -0.3782    0.8104 C   0  0  0  0  0  0  0  0  0  3  0  0
    0.8313   -1.0381   -0.7322 C   0  0  0  0  0  0  0  0  0  4  0  0
    0.3307   -2.3541   -0.9005 O   0  0  0  0  0  0  0  0  0  5  0  0
    0.6071    1.9181    0.0231 H   0  0  0  0  0  0  0  0  0  6  0  0
   -0.9831    1.9109   -0.7211 H   0  0  0  0  0  0  0  0  0  7  0  0
    0.4475    1.4899   -1.6787 H   0  0  0  0  0  0  0  0  0  8  0  0
   -2.0864    0.1051    0.6984 H   0  0  0  0  0  0  0  0  0  9  0  0
   -1.2623   -1.4541    0.9003 H   0  0  0  0  0  0  0  0  0 10  0  0
   -0.6968   -0.0235    1.7662 H   0  0  0  0  0  0  0  0  0 11  0  0
    1.6088   -1.1338    0.0391 H   0  0  0  0  0  0  0  0  0 12  0  0
    1.3350   -0.6925   -1.6447 H   0  0  0  0  0  0  0  0  0 13  0  0
   -0.3997   -2.3102   -1.5208 H   0  0  0  0  0  0  0  0  0 14  0  0
  1  8  1  0
  1  7  1  0
  1  6  1  0
  1  2  1  0
  2  3  1  0
  2  4  1  0
  3 11  1  0
  3  9  1  0
  3 10  1  0
  4 13  1  0
  4 12  1  0
  4  5  1  0
  5 14  1  0
M  RAD  1   2   2
M  END
>  <rmg_smiles>  (4) 
C[C](C)CO

>  <rmg_adjacency_list>  (4) 
multiplicity 2
1  O u0 p2 c0 {2,S} {14,S}
2  C u0 p0 c0 {1,S} {5,S} {6,S} {7,S}
3  C u0 p0 c0 {5,S} {8,S} {9,S} {10,S}
4  C u0 p0 c0 {5,S} {11,S} {12,S} {13,S}
5  C u1 p0 c0 {2,S} {3,S} {4,S}
6  H u0 p0 c0 {2,S}
7  H u0 p0 c0 {2,S}
8  H u0 p0 c0 {3,S}
9  H u0 p0 c0 {3,S}
10 H u0 p0 c0 {3,S}
11 H u0 p0 c0 {4,S}
12 H u0 p0 c0 {4,S}
13 H u0 p0 c0 {4,S}
14 H u0 p0 c0 {1,S}


>  <multiplicity>  (4) 
2

>  <reaction>  (4) 
rxn_420

>  <type>  (4) 
r1

>  <role_mapnums>  (4) 
{}

>  <role_mapidx>  (4) 
{}

>  <ordered_mapped_smiles>  (4) 
[C:1]([C:2]([C:3]([H:9])([H:10])[H:11])[C:4]([O:5][H:14])([H:12])[H:13])([H:6])([H:7])[H:8]

>  <level_of_theory>  (4) 
wb97xd/def2tzvp

>  <lot_method>  (4) 
wb97xd

>  <lot_basis>  (4) 
def2tzvp

>  <spin_multiplicity>  (4) 
2.0

>  <optical_isomers>  (4) 
2.0

>  <modes>  (4) 
IdealGasTranslation(mass=(73.0653, 'amu')),         NonlinearRotor(             inertia = ([66.6519, 141.392, 190.234

>  <frequency_value>  (4) 
unknown

>  <frequency_units>  (4) 
unknown

>  <frequency_list>  (4) 
unknown

>  <arkane_path>  (4) 
/home/calvin/Dropbox/PersonalFolders/Calvin/HAb_Converged/rxn_420/output/Species/rxn_420_C[C][C]CO/arkane/output.py

>  <path_exists>  (4) 
True

>  <E0_value>  (4) 
-611495.1349430596

>  <E0_units>  (4) 
kJ/mol

>  <thermo_class>  (4) 
NASA

>  <Cp0_value>  (4) 
33.257888

>  <Cp0_units>  (4) 
J/(mol*K)

>  <CpInf_value>  (4) 
332.57888

>  <CpInf_units>  (4) 
J/(mol*K)

>  <Tmin_value>  (4) 
10.0

>  <Tmin_units>  (4) 
K

>  <Tmax_value>  (4) 
3000.0

>  <Tmax_units>  (4) 
K

>  <polynomials>  (4) 
[{"name": "polynomial1", "class": "NASAPolynomial", "Tmin_value": 10.0, "Tmin_units": "K", "Tmax_value": 444.89285803448655, "Tmax_units": "K", "coeffs": [3.5516497294481084, 0.04549119231203356, -9.35500556411164e-05, 2.2415821551796147e-07, -1.89017142507032e-10, -73545875.69862285, 11.47675931749065]}, {"name": "polynomial2", "class": "NASAPolynomial", "Tmin_value": 444.89285803448655, "Tmin_units": "K", "Tmax_value": 3000.0, "Tmax_units": "K", "coeffs": [0.48125722327110365, 0.0496265058412315, -2.8360023030992606e-05, 7.892390846890453e-09, -8.565813367019484e-13, -73545370.22540295, 26.41330014079809]}]

>  <H298_value>  (4) 
-146145.66332159776

>  <H298_units>  (4) 
kcal/mol

>  <S298_value>  (4) 
84.88967618109803

>  <S298_units>  (4) 
cal/(mol*K)

>  <Cp_T_value_list>  (4) 
[26.431307814702723, 32.36643649688936, 38.03019801263985, 43.00572393844454, 51.11511550414589, 57.19885677382744, 66.39523256354266, 70.99891817771157, 73.36018555026162]

>  <Cp_T_units>  (4) 
cal/(mol*K)

>  <T_list>  (4) 
[300.0, 400.0, 500.0, 600.0, 800.0, 1000.0, 1500.0, 2000.0, 2400.0]

>  <T_units>  (4) 
K

>  <yaml_path>  (4) 
/home/calvin/Dropbox/PersonalFolders/Calvin/HAb_Converged/rxn_420/output/Species/rxn_420_C[C][C]CO/rxn_420_CCCCO.yml

>  <frequencies_cm1>  (4) 
[74.39691895688, 115.57822992092, 128.84524555916, 237.25434280599998, 298.41858105124, 342.64883349736, 362.94764210328, 501.66074556727995, 775.74273064444, 910.0884314449199, 933.4911174154801, 969.65952909592, 994.96437000012, 1046.9268479165598, 1072.89091941148, 1184.8433810834401, 1259.4188416586398, 1297.5237431993198, 1363.9824271262798, 1384.1782309523999, 1395.42635290656, 1412.97150039916, 1456.05496629684, 1458.62321880652, 1472.01384018052, 1478.3314666749197, 1482.21131338072, 2937.81305864644, 2941.3838910128397, 2951.21054700576, 2983.71885551064, 3027.32421229264, 3032.9002043724804, 3076.5398960810794, 3098.1708998390795, 3827.0464556745196]

>  <ZPE_kJmol>  (4) 
318.7283386735599

>  <E_elec_kJmol>  (4) 
-611813.8632817332

>  <E0_minus_Eelec_plus_ZPE_kJmol>  (4) 
0.0

>  <rxn>  (4) 
rxn_420

>  <species_type>  (4) 
p1

>  <species_folder>  (4) 
rxn_420_C[C][C]CO

>  <frequencies_cm1_list>  (4) 
[74.39691895688, 115.57822992092, 128.84524555916, 237.25434280599998, 298.41858105124, 342.64883349736, 362.94764210328, 501.66074556727995, 775.74273064444, 910.0884314449199, 933.4911174154801, 969.65952909592, 994.96437000012, 1046.9268479165598, 1072.89091941148, 1184.8433810834401, 1259.4188416586398, 1297.5237431993198, 1363.9824271262798, 1384.1782309523999, 1395.42635290656, 1412.97150039916, 1456.05496629684, 1458.62321880652, 1472.01384018052, 1478.3314666749197, 1482.21131338072, 2937.81305864644, 2941.3838910128397, 2951.21054700576, 2983.71885551064, 3027.32421229264, 3032.9002043724804, 3076.5398960810794, 3098.1708998390795, 3827.0464556745196]

>  <E0_kJmol>  (4) 
-611495

>  <H298_kJmol>  (4) 
-611473

$$$$

     RDKit          3D

  5  4  0  0  0  0  0  0  0  0999 V2000
    0.0397    0.7134    0.0000 C   0  0  0  0  0  3  0  0  0  1  0  0
    0.0458   -0.5870    0.0000 C   0  0  0  0  0  0  0  0  0  2  0  0
   -0.6871    1.5118    0.0000 H   0  0  0  0  0  0  0  0  0  3  0  0
   -0.8806   -1.1637    0.0000 H   0  0  0  0  0  0  0  0  0  4  0  0
    0.9690   -1.1600    0.0000 H   0  0  0  0  0  0  0  0  0  5  0  0
  1  3  1  0
  1  2  1  0
  2  5  1  0
  2  4  1  0
M  RAD  1   1   2
M  END
>  <rmg_smiles>  (5) 
[CH][CH2]

>  <rmg_adjacency_list>  (5) 
multiplicity 2
1 C u0 p0 c0 {2,S} {3,S} {4,S}
2 C u1 p1 c0 {1,S} {5,S}
3 H u0 p0 c0 {1,S}
4 H u0 p0 c0 {1,S}
5 H u0 p0 c0 {2,S}


>  <multiplicity>  (5) 
2

>  <reaction>  (5) 
rxn_420

>  <type>  (5) 
r2

>  <role_mapnums>  (5) 
{}

>  <role_mapidx>  (5) 
{}

>  <ordered_mapped_smiles>  (5) 
[CH:1]([CH:2]([H:4])[H:5])[H:3]

>  <level_of_theory>  (5) 
wb97xd/def2tzvp

>  <lot_method>  (5) 
wb97xd

>  <lot_basis>  (5) 
def2tzvp

>  <spin_multiplicity>  (5) 
2.0

>  <optical_isomers>  (5) 
1.0

>  <modes>  (5) 
IdealGasTranslation(mass=(27.0235, 'amu')),         NonlinearRotor(             inertia = ([2.14183, 15.3481, 17.4899

>  <frequency_value>  (5) 
unknown

>  <frequency_units>  (5) 
unknown

>  <frequency_list>  (5) 
unknown

>  <arkane_path>  (5) 
/home/calvin/Dropbox/PersonalFolders/Calvin/HAb_Converged/rxn_420/output/Species/rxn_420_[CH]=C/arkane/output.py

>  <path_exists>  (5) 
True

>  <E0_value>  (5) 
-204434.59610714423

>  <E0_units>  (5) 
kJ/mol

>  <thermo_class>  (5) 
NASA

>  <Cp0_value>  (5) 
33.257888

>  <Cp0_units>  (5) 
J/(mol*K)

>  <CpInf_value>  (5) 
108.088136

>  <CpInf_units>  (5) 
J/(mol*K)

>  <Tmin_value>  (5) 
10.0

>  <Tmin_units>  (5) 
K

>  <Tmax_value>  (5) 
3000.0

>  <Tmax_units>  (5) 
K

>  <polynomials>  (5) 
[{"name": "polynomial1", "class": "NASAPolynomial", "Tmin_value": 10.0, "Tmin_units": "K", "Tmax_value": 605.1562073532106, "Tmax_units": "K", "coeffs": [4.0732302477000095, -0.005855893423713469, 5.173301484019039e-05, -7.605753070838568e-08, 3.74067872861101e-11, -24587803.17884632, 4.922911546686311]}, {"name": "polynomial2", "class": "NASAPolynomial", "Tmin_value": 605.1562073532106, "Tmin_units": "K", "Tmax_value": 3000.0, "Tmax_units": "K", "coeffs": [1.907334803595395, 0.013219860447203871, -7.347353045060493e-06, 2.024442812279225e-09, -2.192078156816895e-13, -24587628.1872574, 13.564186384006128]}]

>  <H298_value>  (5) 
-48858.50309296871

>  <H298_units>  (5) 
kcal/mol

>  <S298_value>  (5) 
55.807333309528325

>  <S298_units>  (5) 
cal/(mol*K)

>  <Cp_T_value_list>  (5) 
[10.376944352757018, 12.118158212925861, 13.730146484867369, 15.108875169207579, 17.343631711777416, 19.047527728648078, 21.716860438361014, 23.14273061905272, 23.900837148526193]

>  <Cp_T_units>  (5) 
cal/(mol*K)

>  <T_list>  (5) 
[300.0, 400.0, 500.0, 600.0, 800.0, 1000.0, 1500.0, 2000.0, 2400.0]

>  <T_units>  (5) 
K

>  <yaml_path>  (5) 
/home/calvin/Dropbox/PersonalFolders/Calvin/HAb_Converged/rxn_420/output/Species/rxn_420_[CH]=C/rxn_420_CH=C.yml

>  <frequencies_cm1>  (5) 
[709.40765245324, 831.6056562226399, 928.3889473227199, 1044.4341322454, 1381.5275746188797, 1653.3915234376798, 3045.07536934484, 3137.58739557588, 3217.88305492264]

>  <ZPE_kJmol>  (5) 
95.3980343814778

>  <E_elec_kJmol>  (5) 
-204529.9941415257

>  <E0_minus_Eelec_plus_ZPE_kJmol>  (5) 
0.0

>  <rxn>  (5) 
rxn_420

>  <species_type>  (5) 
r0

>  <species_folder>  (5) 
rxn_420_[CH]=C

>  <frequencies_cm1_list>  (5) 
[709.40765245324, 831.6056562226399, 928.3889473227199, 1044.4341322454, 1381.5275746188797, 1653.3915234376798, 3045.07536934484, 3137.58739557588, 3217.88305492264]

>  <E0_kJmol>  (5) 
-204435

>  <H298_kJmol>  (5) 
-204424

$$$$
