
     RDKit          3D

 10  9  0  0  0  0  0  0  0  0999 V2000
    0.3377   -0.4677   -1.8174 C   0  0  0  0  0  2  0  0  0  1  0  0
    0.0359   -0.3974   -0.6584 C   0  0  0  0  0  2  0  0  0  2  0  0
   -0.2886   -0.3174    0.7401 C   0  0  0  0  0  0  0  0  0  3  0  0
   -0.0634    1.0344    1.3921 C   0  0  0  0  0  0  0  0  0  4  0  0
    0.5964   -0.5291   -2.8471 H   0  0  0  0  0  0  0  0  0  5  0  0
    0.3663   -1.0186    1.2586 H   0  0  0  0  0  0  0  0  0  6  0  0
   -1.2778   -0.7277    0.9466 H   0  0  0  0  0  0  0  0  0  7  0  0
   -0.2542    0.9736    2.4639 H   0  0  0  0  0  0  0  0  0  8  0  0
    0.9621    1.3706    1.2395 H   0  0  0  0  0  0  0  0  0  9  0  0
   -0.7326    1.7830    0.9643 H   0  0  0  0  0  0  0  0  0 10  0  0
  1  5  1  0
  1  2  1  0
  2  3  1  0
  3  4  1  0
  3  6  1  0
  3  7  1  0
  4  8  1  0
  4  9  1  0
  4 10  1  0
M  RAD  2   1   3   2   3
M  END
>  <rmg_smiles>  (1) 
[CH][C]CC

>  <rmg_adjacency_list>  (1) 
1  C u0 p0 c0 {2,S} {3,S} {5,S} {6,S}
2  C u0 p0 c0 {1,S} {7,S} {8,S} {9,S}
3  C u0 p1 c0 {1,S} {4,S}
4  C u0 p1 c0 {3,S} {10,S}
5  H u0 p0 c0 {1,S}
6  H u0 p0 c0 {1,S}
7  H u0 p0 c0 {2,S}
8  H u0 p0 c0 {2,S}
9  H u0 p0 c0 {2,S}
10 H u0 p0 c0 {4,S}


>  <multiplicity>  (1) 
1

>  <reaction>  (1) 
rxn_1257

>  <type>  (1) 
r1h

>  <role_mapnums>  (1) 
{"r1h_a": 3, "r1h_h": 6}

>  <role_mapidx>  (1) 
{"r1h_a": 2, "r1h_h": 5}

>  <ordered_mapped_smiles>  (1) 
[C:1]([C:2][C:3]([C:4]([H:8])([H:9])[H:10])([H:6])[H:7])[H:5]

>  <mol_properties>  (1) 
{"2": {"label": "donator", "atom_type": "Cs"}, "5": {"label": "d_hydrogen", "atom_type": "H0"}}

>  <level_of_theory>  (1) 
wb97xd/def2tzvp

>  <lot_method>  (1) 
wb97xd

>  <lot_basis>  (1) 
def2tzvp

>  <spin_multiplicity>  (1) 
1.0

>  <optical_isomers>  (1) 
1.0

>  <modes>  (1) 
IdealGasTranslation(mass=(54.047, 'amu')),         NonlinearRotor(             inertia = ([18.311, 110.882, 122.965

>  <frequency_value>  (1) 
unknown

>  <frequency_units>  (1) 
unknown

>  <frequency_list>  (1) 
unknown

>  <arkane_path>  (1) 
/home/calvin/Dropbox/PersonalFolders/Calvin/HAb_Converged/rxn_1257/output/Species/rxn_1257_CtCCC/arkane/output.py

>  <path_exists>  (1) 
True

>  <E0_value>  (1) 
-409281.9068125439

>  <E0_units>  (1) 
kJ/mol

>  <thermo_class>  (1) 
NASA

>  <Cp0_value>  (1) 
33.257888

>  <Cp0_units>  (1) 
J/(mol*K)

>  <CpInf_value>  (1) 
232.805216

>  <CpInf_units>  (1) 
J/(mol*K)

>  <Tmin_value>  (1) 
10.0

>  <Tmin_units>  (1) 
K

>  <Tmax_value>  (1) 
3000.0

>  <Tmax_units>  (1) 
K

>  <polynomials>  (1) 
[{"name": "polynomial1", "class": "NASAPolynomial", "Tmin_value": 10.0, "Tmin_units": "K", "Tmax_value": 360.48121370424, "Tmax_units": "K", "coeffs": [3.964907651517416, 0.0024252181225602747, 0.00010970866124517926, -2.330425775882924e-07, 1.6483387684637681e-10, -49225243.05086936, 8.23900007534587]}, {"name": "polynomial2", "class": "NASAPolynomial", "Tmin_value": 360.48121370424, "Tmin_units": "K", "Tmax_value": 3000.0, "Tmax_units": "K", "coeffs": [1.173366775306642, 0.03340704549885685, -1.9235392341731885e-05, 5.470981511725664e-09, -6.120493514194064e-13, -49225041.83097189, 18.857768088551204]}]

>  <H298_value>  (1) 
-97816.99696801163

>  <H298_units>  (1) 
kcal/mol

>  <S298_value>  (1) 
68.93760489416931

>  <S298_units>  (1) 
cal/(mol*K)

>  <Cp_T_value_list>  (1) 
[19.095578790385176, 23.435119416919605, 27.251876378154844, 30.59356719880144, 36.04553968052718, 40.149424943692715, 46.44174128793762, 49.72179624324852, 51.42678973904542]

>  <Cp_T_units>  (1) 
cal/(mol*K)

>  <T_list>  (1) 
[300.0, 400.0, 500.0, 600.0, 800.0, 1000.0, 1500.0, 2000.0, 2400.0]

>  <T_units>  (1) 
K

>  <yaml_path>  (1) 
/home/calvin/Dropbox/PersonalFolders/Calvin/HAb_Converged/rxn_1257/output/Species/rxn_1257_CtCCC/rxn_1257_CtCCC.yml

>  <frequencies_cm1>  (1) 
[204.17607451956, 218.97442788415998, 366.0789874092, 525.48918462768, 681.08133800824, 687.0144133247201, 787.3273348792799, 847.3241856201199, 1026.4769656336, 1086.98884027344, 1103.26359548184, 1280.9125057102399, 1344.0544357276399, 1402.80149514024, 1466.62325670432, 1482.32805213116, 1490.70577422156, 2222.88434999592, 3023.4855674987602, 3025.88901236076, 3057.6625534364, 3103.54088235932, 3108.5949835548395, 3438.35448560656]

>  <ZPE_kJmol>  (1) 
221.20174166210896

>  <E_elec_kJmol>  (1) 
-409503.108554206

>  <E0_minus_Eelec_plus_ZPE_kJmol>  (1) 
0.0

>  <rxn>  (1) 
rxn_1257

>  <species_type>  (1) 
r1

>  <species_folder>  (1) 
rxn_1257_CtCCC

>  <frequencies_cm1_list>  (1) 
[204.17607451956, 218.97442788415998, 366.0789874092, 525.48918462768, 681.08133800824, 687.0144133247201, 787.3273348792799, 847.3241856201199, 1026.4769656336, 1086.98884027344, 1103.26359548184, 1280.9125057102399, 1344.0544357276399, 1402.80149514024, 1466.62325670432, 1482.32805213116, 1490.70577422156, 2222.88434999592, 3023.4855674987602, 3025.88901236076, 3057.6625534364, 3103.54088235932, 3108.5949835548395, 3438.35448560656]

>  <E0_kJmol>  (1) 
-409282

>  <H298_kJmol>  (1) 
-409266

$$$$

     RDKit          3D

  2  1  0  0  0  0  0  0  0  0999 V2000
    0.3182   -0.3140    0.2936 H   0  0  0  0  0  0  0  0  0  1  0  0
   -0.1221    0.1205   -0.1127 H   0  0  0  0  0  0  0  0  0  2  0  0
  1  2  1  0
M  END
>  <rmg_smiles>  (2) 
[H][H]

>  <rmg_adjacency_list>  (2) 
1 H u0 p0 c0 {2,S}
2 H u0 p0 c0 {1,S}


>  <multiplicity>  (2) 
1

>  <reaction>  (2) 
rxn_1257

>  <type>  (2) 
r2h

>  <role_mapnums>  (2) 
{"r2h_a": 1, "r2h_h": 2}

>  <role_mapidx>  (2) 
{"r2h_a": 0, "r2h_h": 1}

>  <ordered_mapped_smiles>  (2) 
[H:1][H:2]

>  <mol_properties>  (2) 
{"0": {"label": "acceptor", "atom_type": "H0"}, "1": {"label": "a_hydrogen", "atom_type": "H0"}}

>  <level_of_theory>  (2) 
wb97xd/def2tzvp

>  <lot_method>  (2) 
wb97xd

>  <lot_basis>  (2) 
def2tzvp

>  <spin_multiplicity>  (2) 
1.0

>  <optical_isomers>  (2) 
1.0

>  <modes>  (2) 
IdealGasTranslation(mass=(2.01565, 'amu')),         LinearRotor(inertia=(0.279051, 'amu*angstrom^2'), symmetry=2),         HarmonicOscillator(frequencies=([4384.98

>  <frequency_value>  (2) 
unknown

>  <frequency_units>  (2) 
unknown

>  <frequency_list>  (2) 
unknown

>  <arkane_path>  (2) 
/home/calvin/Dropbox/PersonalFolders/Calvin/HAb_Converged/rxn_1257/output/Species/rxn_1257_[H][H]/arkane/output.py

>  <path_exists>  (2) 
True

>  <E0_value>  (2) 
-3062.16965545063

>  <E0_units>  (2) 
kJ/mol

>  <thermo_class>  (2) 
NASA

>  <Cp0_value>  (2) 
29.100652

>  <Cp0_units>  (2) 
J/(mol*K)

>  <CpInf_value>  (2) 
37.415124

>  <CpInf_units>  (2) 
J/(mol*K)

>  <Tmin_value>  (2) 
10.0

>  <Tmin_units>  (2) 
K

>  <Tmax_value>  (2) 
3000.0

>  <Tmax_units>  (2) 
K

>  <polynomials>  (2) 
[{"name": "polynomial1", "class": "NASAPolynomial", "Tmin_value": 10.0, "Tmin_units": "K", "Tmax_value": 609.8839760798177, "Tmax_units": "K", "coeffs": [3.498630427760662, 8.118128927195725e-05, -2.559636751505851e-07, 1.12469612407288e-11, 3.0815171130046294e-13, -368293.8823611774, -4.277290681887199]}, {"name": "polynomial2", "class": "NASAPolynomial", "Tmin_value": 609.8839760798177, "Tmin_units": "K", "Tmax_value": 3000.0, "Tmax_units": "K", "coeffs": [3.686867766797846, -0.0007828622299568348, 9.578139376048542e-07, -3.193665739780837e-10, 3.533006631714403e-14, -368323.7341208647, -5.148841965058497]}]

>  <H298_value>  (2) 
-729.8011438890577

>  <H298_units>  (2) 
kcal/mol

>  <S298_value>  (2) 
31.136082854374543

>  <S298_units>  (2) 
cal/(mol*K)

>  <Cp_T_value_list>  (2) 
[6.960683160805141, 6.952753142081975, 6.947066275630451, 6.950370161364484, 7.003977696739648, 7.10979357060473, 7.489089863592967, 7.874797646413975, 8.112273708870758]

>  <Cp_T_units>  (2) 
cal/(mol*K)

>  <T_list>  (2) 
[300.0, 400.0, 500.0, 600.0, 800.0, 1000.0, 1500.0, 2000.0, 2400.0]

>  <T_units>  (2) 
K

>  <yaml_path>  (2) 
/home/calvin/Dropbox/PersonalFolders/Calvin/HAb_Converged/rxn_1257/output/Species/rxn_1257_[H][H]/rxn_1257_HH.yml

>  <frequencies_cm1>  (2) 
[4384.97527895388]

>  <ZPE_kJmol>  (2) 
26.22798418526521

>  <E_elec_kJmol>  (2) 
-3088.3976396358958

>  <E0_minus_Eelec_plus_ZPE_kJmol>  (2) 
0.0

>  <rxn>  (2) 
rxn_1257

>  <species_type>  (2) 
p0

>  <species_folder>  (2) 
rxn_1257_[H][H]

>  <frequencies_cm1_list>  (2) 
[4384.97527895388]

>  <E0_kJmol>  (2) 
-3062.17

>  <H298_kJmol>  (2) 
-3053.49

$$$$

     RDKit          3D

 11  9  0  0  0  0  0  0  0  0999 V2000
    1.1494   -1.6798    1.8431 H   0  0  0  0  0 15  0  0  0  1  0  0
    0.4012   -0.4119   -1.8860 C   0  0  0  0  0  0  0  0  0  2  0  0
    0.0995   -0.3416   -0.7270 C   0  0  0  0  0  0  0  0  0  3  0  0
   -0.2251   -0.2616    0.6715 C   0  0  0  0  0  0  0  0  0  4  0  0
    0.0002    1.0902    1.3236 C   0  0  0  0  0  0  0  0  0  5  0  0
    0.6600   -0.4733   -2.9156 H   0  0  0  0  0  0  0  0  0  6  0  0
    0.5131   -1.0519    1.2559 H   0  0  0  0  0  0  0  0  0  7  0  0
   -1.2142   -0.6719    0.8780 H   0  0  0  0  0  0  0  0  0  8  0  0
   -0.1906    1.0294    2.3953 H   0  0  0  0  0  0  0  0  0  9  0  0
    1.0257    1.4264    1.1710 H   0  0  0  0  0  0  0  0  0 10  0  0
   -0.6690    1.8388    0.8958 H   0  0  0  0  0  0  0  0  0 11  0  0
  2  6  1  0
  2  3  1  0
  3  4  1  0
  4  8  1  0
  4  5  1  0
  4  7  1  0
  5 11  1  0
  5  9  1  0
  5 10  1  0
M  END
>  <rmg_smiles>  (3) 
[CH]CCC.[H]

>  <rmg_adjacency_list>  (3) 
multiplicity 2
1  C u0 p0 c0 {2,S} {3,S} {5,S} {6,S}
2  C u0 p0 c0 {1,S} {7,S} {8,S} {9,S}
3  C u0 p1 c0 {1,S} {4,S}
4  C u0 p1 c0 {3,S} {10,S}
5  H u0 p0 c0 {1,S}
6  H u0 p0 c0 {1,S}
7  H u0 p0 c0 {2,S}
8  H u0 p0 c0 {2,S}
9  H u0 p0 c0 {2,S}
10 H u0 p0 c0 {4,S}
11 H u1 p0 c0


>  <multiplicity>  (3) 
2

>  <reaction>  (3) 
rxn_1257

>  <type>  (3) 
ts

>  <role_mapnums>  (3) 
{"*2": 7, "*1": 4, "*3": 1, "*0": null, "*4": 3}

>  <role_mapidx>  (3) 
{"*2": 6, "*1": 3, "*3": 0, "*4": 2}

>  <ordered_mapped_smiles>  (3) 
[H:1].[CH2:2]([CH2:3][C:4]([C:5]([H:9])([H:10])[H:11])([H:7])[H:8])[H:6]

>  <mol_properties>  (3) 
{"0": {"label": "*3", "atom_type": "H0"}, "2": {"label": "*4", "atom_type": "C2s"}, "3": {"label": "*1", "atom_type": "Cs"}, "6": {"label": "*2", "atom_type": "H0"}}

>  <level_of_theory>  (3) 
wb97xd/def2tzvp

>  <lot_method>  (3) 
wb97xd

>  <lot_basis>  (3) 
def2tzvp

>  <spin_multiplicity>  (3) 
2.0

>  <optical_isomers>  (3) 
2.0

>  <modes>  (3) 
IdealGasTranslation(mass=(55.0548, 'amu')),         NonlinearRotor(             inertia = ([24.3872, 116.198, 128.87

>  <frequency_value>  (3) 
-1301.18

>  <frequency_units>  (3) 
cm^-1

>  <frequency_list>  (3) 
unknown

>  <arkane_path>  (3) 
/home/calvin/Dropbox/PersonalFolders/Calvin/HAb_Converged/rxn_1257/output/rxns/TS0/arkane/output.py

>  <path_exists>  (3) 
True

>  <E0_value>  (3) 
-410577.0

>  <E0_units>  (3) 
kJ/mol

>  <thermo_class>  (3) 
unknown

>  <Cp0_value>  (3) 
unknown

>  <Cp0_units>  (3) 
unknown

>  <CpInf_value>  (3) 
unknown

>  <CpInf_units>  (3) 
unknown

>  <Tmin_value>  (3) 
unknown

>  <Tmin_units>  (3) 
unknown

>  <Tmax_value>  (3) 
unknown

>  <Tmax_units>  (3) 
unknown

>  <polynomials>  (3) 
unknown

>  <H298_value>  (3) 
unknown

>  <H298_units>  (3) 
unknown

>  <S298_value>  (3) 
unknown

>  <S298_units>  (3) 
unknown

>  <Cp_T_value_list>  (3) 
unknown

>  <Cp_T_units>  (3) 
unknown

>  <T_list>  (3) 
unknown

>  <T_units>  (3) 
unknown

>  <yaml_path>  (3) 
unknown

>  <frequencies_cm1>  (3) 
unknown

>  <ZPE_kJmol>  (3) 
unknown

>  <E_elec_kJmol>  (3) 
unknown

>  <E0_minus_Eelec_plus_ZPE_kJmol>  (3) 
unknown

>  <rxn>  (3) 
unknown

>  <species_type>  (3) 
unknown

>  <species_folder>  (3) 
unknown

>  <frequencies_cm1_list>  (3) 
[]

>  <ts_imag_freq_cm1>  (3) 
-1316.9801

>  <ts_freq_out_path>  (3) 
/home/calvin/Dropbox/PersonalFolders/Calvin/HAb_Converged/rxn_1257/output/rxns/TS0/geometry/freq.out

>  <E0_kJmol>  (3) 
-410577

>  <H298_kJmol>  (3) 
unknown

$$$$

     RDKit          3D

  9  8  0  0  0  0  0  0  0  0999 V2000
    2.3038   -0.0269    0.1590 C   0  0  0  0  0  0  0  0  0  1  0  0
    1.1426    0.1377   -0.1648 C   0  0  0  0  0  0  0  0  0  2  0  0
   -0.1694    0.3175   -0.5203 C   0  0  0  0  0  3  0  0  0  3  0  0
   -1.3163   -0.1910    0.2856 C   0  0  0  0  0  0  0  0  0  4  0  0
    3.3199   -0.1683    0.4378 H   0  0  0  0  0  0  0  0  0  5  0  0
   -0.3786    0.8584   -1.4360 H   0  0  0  0  0  0  0  0  0  6  0  0
   -1.9694    0.6309    0.5951 H   0  0  0  0  0  0  0  0  0  7  0  0
   -1.9325   -0.8770   -0.3039 H   0  0  0  0  0  0  0  0  0  8  0  0
   -0.9753   -0.7144    1.1774 H   0  0  0  0  0  0  0  0  0  9  0  0
  1  5  1  0
  1  2  1  0
  2  3  1  0
  3  4  1  0
  3  6  1  0
  4  8  1  0
  4  9  1  0
  4  7  1  0
M  RAD  1   3   2
M  END
>  <rmg_smiles>  (4) 
[CH]C[CH]C

>  <rmg_adjacency_list>  (4) 
multiplicity 2
1 C u0 p0 c0 {2,S} {5,S} {6,S} {7,S}
2 C u1 p0 c0 {1,S} {3,S} {8,S}
3 C u0 p1 c0 {2,S} {4,S}
4 C u0 p1 c0 {3,S} {9,S}
5 H u0 p0 c0 {1,S}
6 H u0 p0 c0 {1,S}
7 H u0 p0 c0 {1,S}
8 H u0 p0 c0 {2,S}
9 H u0 p0 c0 {4,S}


>  <multiplicity>  (4) 
2

>  <reaction>  (4) 
rxn_1257

>  <type>  (4) 
r1

>  <role_mapnums>  (4) 
{}

>  <role_mapidx>  (4) 
{}

>  <ordered_mapped_smiles>  (4) 
[CH2:1]([CH2:2][C:3]([C:4]([H:7])([H:8])[H:9])[H:6])[H:5]

>  <level_of_theory>  (4) 
wb97xd/def2tzvp

>  <lot_method>  (4) 
wb97xd

>  <lot_basis>  (4) 
def2tzvp

>  <spin_multiplicity>  (4) 
2.0

>  <optical_isomers>  (4) 
1.0

>  <modes>  (4) 
IdealGasTranslation(mass=(53.0391, 'amu')),         NonlinearRotor(             inertia = ([13.0163, 113.224, 123.133

>  <frequency_value>  (4) 
unknown

>  <frequency_units>  (4) 
unknown

>  <frequency_list>  (4) 
unknown

>  <arkane_path>  (4) 
/home/calvin/Dropbox/PersonalFolders/Calvin/HAb_Converged/rxn_1257/output/Species/rxn_1257_CtC[CH]C/arkane/output.py

>  <path_exists>  (4) 
True

>  <E0_value>  (4) 
-407611.0180987149

>  <E0_units>  (4) 
kJ/mol

>  <thermo_class>  (4) 
NASA

>  <Cp0_value>  (4) 
33.257888

>  <Cp0_units>  (4) 
J/(mol*K)

>  <CpInf_value>  (4) 
207.8618

>  <CpInf_units>  (4) 
J/(mol*K)

>  <Tmin_value>  (4) 
10.0

>  <Tmin_units>  (4) 
K

>  <Tmax_value>  (4) 
3000.0

>  <Tmax_units>  (4) 
K

>  <polynomials>  (4) 
[{"name": "polynomial1", "class": "NASAPolynomial", "Tmin_value": 10.0, "Tmin_units": "K", "Tmax_value": 225.12244092476377, "Tmax_units": "K", "coeffs": [3.9266130103725434, 0.006751552972290672, 0.0001283541194316844, -4.2549688859148007e-07, 4.774737524189803e-10, -49024283.39050682, 9.03931398875942]}, {"name": "polynomial2", "class": "NASAPolynomial", "Tmin_value": 225.12244092476377, "Tmin_units": "K", "Tmax_value": 3000.0, "Tmax_units": "K", "coeffs": [2.698793800089887, 0.02856763785346583, -1.700774111948388e-05, 4.9718456847290095e-09, -5.66009400316375e-13, -49024228.10872656, 13.132014034873661]}]

>  <H298_value>  (4) 
-97417.42510508596

>  <H298_units>  (4) 
kcal/mol

>  <S298_value>  (4) 
72.15152284270778

>  <S298_units>  (4) 
cal/(mol*K)

>  <Cp_T_value_list>  (4) 
[19.609840418917145, 23.266846927668503, 26.46319689496793, 29.246023227567047, 33.746139284951916, 37.090269030960386, 42.123590532288944, 44.75530859912038, 46.19956450688901]

>  <Cp_T_units>  (4) 
cal/(mol*K)

>  <T_list>  (4) 
[300.0, 400.0, 500.0, 600.0, 800.0, 1000.0, 1500.0, 2000.0, 2400.0]

>  <T_units>  (4) 
K

>  <yaml_path>  (4) 
/home/calvin/Dropbox/PersonalFolders/Calvin/HAb_Converged/rxn_1257/output/Species/rxn_1257_CtC[CH]C/rxn_1257_CtCCHC.yml

>  <frequencies_cm1>  (4) 
[83.4682065646, 211.55121675324, 392.1460636839199, 478.7318815838, 554.46786267808, 595.8689171723599, 660.0408949877599, 865.1234115695598, 998.98842339764, 1092.3794237496397, 1143.49726247172, 1380.42198998236, 1394.47184194708, 1461.2464071987597, 1480.32289241772, 2005.2970531463998, 2994.3558157713196, 3043.5921005157197, 3109.55636149964, 3150.5453968747197, 3427.4497129183997]

>  <ZPE_kJmol>  (4) 
182.57126464434097

>  <E_elec_kJmol>  (4) 
-407793.5893633592

>  <E0_minus_Eelec_plus_ZPE_kJmol>  (4) 
0.0

>  <rxn>  (4) 
rxn_1257

>  <species_type>  (4) 
p1

>  <species_folder>  (4) 
rxn_1257_CtC[CH]C

>  <frequencies_cm1_list>  (4) 
[83.4682065646, 211.55121675324, 392.1460636839199, 478.7318815838, 554.46786267808, 595.8689171723599, 660.0408949877599, 865.1234115695598, 998.98842339764, 1092.3794237496397, 1143.49726247172, 1380.42198998236, 1394.47184194708, 1461.2464071987597, 1480.32289241772, 2005.2970531463998, 2994.3558157713196, 3043.5921005157197, 3109.55636149964, 3150.5453968747197, 3427.4497129183997]

>  <E0_kJmol>  (4) 
-407611

>  <H298_kJmol>  (4) 
-407595

$$$$

     RDKit          3D

  1  0  0  0  0  0  0  0  0  0999 V2000
    0.0000    0.0000    0.0000 H   0  0  0  0  0 15  0  0  0  1  0  0
M  END
>  <rmg_smiles>  (5) 
[H]

>  <rmg_adjacency_list>  (5) 
multiplicity 2
1 H u1 p0 c0


>  <multiplicity>  (5) 
2

>  <reaction>  (5) 
rxn_1257

>  <type>  (5) 
r2

>  <role_mapnums>  (5) 
{}

>  <role_mapidx>  (5) 
{}

>  <ordered_mapped_smiles>  (5) 
[H:1]

>  <level_of_theory>  (5) 
wb97xd/def2tzvp

>  <lot_method>  (5) 
wb97xd

>  <lot_basis>  (5) 
def2tzvp

>  <spin_multiplicity>  (5) 
2.0

>  <optical_isomers>  (5) 
1.0

>  <modes>  (5) 
IdealGasTranslation(mass=(1.00797, 'amu')),

>  <frequency_value>  (5) 
unknown

>  <frequency_units>  (5) 
unknown

>  <frequency_list>  (5) 
unknown

>  <arkane_path>  (5) 
/home/calvin/Dropbox/PersonalFolders/Calvin/HAb_Converged/rxn_1257/output/Species/rxn_1257_[H]/arkane/output.py

>  <path_exists>  (5) 
True

>  <E0_value>  (5) 
-1319.7535890175566

>  <E0_units>  (5) 
kJ/mol

>  <thermo_class>  (5) 
NASA

>  <Cp0_value>  (5) 
20.78618

>  <Cp0_units>  (5) 
J/(mol*K)

>  <CpInf_value>  (5) 
20.78618

>  <CpInf_units>  (5) 
J/(mol*K)

>  <Tmin_value>  (5) 
10.0

>  <Tmin_units>  (5) 
K

>  <Tmax_value>  (5) 
3000.0

>  <Tmax_units>  (5) 
K

>  <polynomials>  (5) 
[{"name": "polynomial1", "class": "NASAPolynomial", "Tmin_value": 10.0, "Tmin_units": "K", "Tmax_value": 1853.5663026740365, "Tmax_units": "K", "coeffs": [2.500000000000126, -2.814048095438137e-15, 9.047587538332909e-18, -8.591944598242694e-21, 2.4182720553650057e-24, -158729.69562032758, -0.461069367474324]}, {"name": "polynomial2", "class": "NASAPolynomial", "Tmin_value": 1853.5663026740365, "Tmin_units": "K", "Tmax_value": 3000.0, "Tmax_units": "K", "coeffs": [2.500000000696122, -1.3129776766613561e-12, 9.140875080033424e-16, -2.782806647322001e-19, 3.1263265306749967e-23, -158729.69562061856, -0.4610693713504795]}]

>  <H298_value>  (5) 
-313.9482141882736

>  <H298_units>  (5) 
kcal/mol

>  <S298_value>  (5) 
27.387012987908147

>  <S298_units>  (5) 
cal/(mol*K)

>  <Cp_T_value_list>  (5) 
[4.968016252389826, 4.968016252389978, 4.968016252390173, 4.96801625239036, 4.968016252390567, 4.968016252390427, 4.968016252389077, 4.968016252391019, 4.968016252390868]

>  <Cp_T_units>  (5) 
cal/(mol*K)

>  <T_list>  (5) 
[300.0, 400.0, 500.0, 600.0, 800.0, 1000.0, 1500.0, 2000.0, 2400.0]

>  <T_units>  (5) 
K

>  <yaml_path>  (5) 
/home/calvin/Dropbox/PersonalFolders/Calvin/HAb_Converged/rxn_1257/output/Species/rxn_1257_[H]/rxn_1257_H.yml

>  <frequencies_cm1>  (5) 
[]

>  <ZPE_kJmol>  (5) 
unknown

>  <E_elec_kJmol>  (5) 
unknown

>  <E0_minus_Eelec_plus_ZPE_kJmol>  (5) 
unknown

>  <rxn>  (5) 
rxn_1257

>  <species_type>  (5) 
r0

>  <species_folder>  (5) 
rxn_1257_[H]

>  <frequencies_cm1_list>  (5) 
[]

>  <E0_kJmol>  (5) 
-1319.75

>  <H298_kJmol>  (5) 
-1313.56

$$$$
