
     RDKit          3D

  9  8  0  0  0  0  0  0  0  0999 V2000
   -0.3740   -0.4392   -1.1632 C   0  0  0  0  0  0  0  0  0  1  0  0
   -0.0688   -0.4187    0.3095 C   0  0  0  0  0  0  0  0  0  2  0  0
    0.3437    0.7856    0.8273 O   0  0  0  0  0  0  0  0  0  3  0  0
    0.5023   -0.1385   -1.7426 H   0  0  0  0  0  0  0  0  0  4  0  0
   -0.6538   -1.4448   -1.4771 H   0  0  0  0  0  0  0  0  0  5  0  0
   -1.1966    0.2430   -1.3959 H   0  0  0  0  0  0  0  0  0  6  0  0
    0.7903   -1.0802    0.4107 H   0  0  0  0  0  0  0  0  0  7  0  0
   -0.8395   -0.8344    0.9569 H   0  0  0  0  0  0  0  0  0  8  0  0
    1.0417    1.1354    0.2637 H   0  0  0  0  0  0  0  0  0  9  0  0
  1  5  1  0
  1  4  1  0
  1  6  1  0
  1  2  1  0
  2  7  1  0
  2  8  1  0
  2  3  1  0
  3  9  1  0
M  END
>  <rmg_smiles>  (1) 
CCO

>  <rmg_adjacency_list>  (1) 
1 O u0 p2 c0 {2,S} {9,S}
2 C u0 p0 c0 {1,S} {3,S} {4,S} {5,S}
3 C u0 p0 c0 {2,S} {6,S} {7,S} {8,S}
4 H u0 p0 c0 {2,S}
5 H u0 p0 c0 {2,S}
6 H u0 p0 c0 {3,S}
7 H u0 p0 c0 {3,S}
8 H u0 p0 c0 {3,S}
9 H u0 p0 c0 {1,S}


>  <multiplicity>  (1) 
1

>  <reaction>  (1) 
rxn_228

>  <type>  (1) 
r1h

>  <role_mapnums>  (1) 
{"r1h_a": 2, "r1h_h": 7}

>  <role_mapidx>  (1) 
{"r1h_a": 1, "r1h_h": 6}

>  <ordered_mapped_smiles>  (1) 
[C:1]([C:2]([O:3][H:9])([H:7])[H:8])([H:4])([H:5])[H:6]

>  <mol_properties>  (1) 
{"1": {"label": "donator", "atom_type": "Cs"}, "6": {"label": "d_hydrogen", "atom_type": "H0"}}

>  <level_of_theory>  (1) 
wb97xd/def2tzvp

>  <lot_method>  (1) 
wb97xd

>  <lot_basis>  (1) 
def2tzvp

>  <spin_multiplicity>  (1) 
1.0

>  <optical_isomers>  (1) 
2.0

>  <modes>  (1) 
IdealGasTranslation(mass=(46.0419, 'amu')),         NonlinearRotor(             inertia = ([14.5784, 54.5856, 61.8154

>  <frequency_value>  (1) 
unknown

>  <frequency_units>  (1) 
unknown

>  <frequency_list>  (1) 
unknown

>  <arkane_path>  (1) 
/home/calvin/Dropbox/PersonalFolders/Calvin/HAb_Converged/rxn_228/output/Species/rxn_228_CCO/arkane/output.py

>  <path_exists>  (1) 
True

>  <E0_value>  (1) 
-406893.32726899936

>  <E0_units>  (1) 
kJ/mol

>  <thermo_class>  (1) 
NASA

>  <Cp0_value>  (1) 
33.257888

>  <Cp0_units>  (1) 
J/(mol*K)

>  <CpInf_value>  (1) 
207.8618

>  <CpInf_units>  (1) 
J/(mol*K)

>  <Tmin_value>  (1) 
10.0

>  <Tmin_units>  (1) 
K

>  <Tmax_value>  (1) 
3000.0

>  <Tmax_units>  (1) 
K

>  <polynomials>  (1) 
[{"name": "polynomial1", "class": "NASAPolynomial", "Tmin_value": 10.0, "Tmin_units": "K", "Tmax_value": 551.325677530043, "Tmax_units": "K", "coeffs": [3.9713939904585835, 0.002395771773103738, 5.8090302361599226e-05, -8.561586731011488e-08, 4.035839426461114e-11, -48937962.79914841, 7.862489902658335]}, {"name": "polynomial2", "class": "NASAPolynomial", "Tmin_value": 551.325677530043, "Tmin_units": "K", "Tmax_value": 3000.0, "Tmax_units": "K", "coeffs": [0.19952229650478104, 0.029761909916141915, -1.6365986604791405e-05, 4.418173006167752e-09, -4.682195473340341e-13, -48937546.897832714, 23.81366453828344]}]

>  <H298_value>  (1) 
-97246.55405342489

>  <H298_units>  (1) 
kcal/mol

>  <S298_value>  (1) 
65.7874488470437

>  <S298_units>  (1) 
cal/(mol*K)

>  <Cp_T_value_list>  (1) 
[15.765557048137794, 19.430727237606316, 22.877261153441847, 25.95004973007039, 31.010636957793498, 34.866331087192144, 40.85674656492191, 43.94362794299649, 45.511889649103395]

>  <Cp_T_units>  (1) 
cal/(mol*K)

>  <T_list>  (1) 
[300.0, 400.0, 500.0, 600.0, 800.0, 1000.0, 1500.0, 2000.0, 2400.0]

>  <T_units>  (1) 
K

>  <yaml_path>  (1) 
/home/calvin/Dropbox/PersonalFolders/Calvin/HAb_Converged/rxn_228/output/Species/rxn_228_CCO/rxn_228_CCO.yml

>  <frequencies_cm1>  (1) 
[261.26819047004, 286.81337586044, 426.24064579772, 804.5016651646, 891.82911747904, 1059.86424825944, 1088.932197119, 1140.44145400432, 1273.9562495810799, 1364.90260315916, 1391.5053042888399, 1416.6247365893998, 1475.59153953224, 1480.8997191846001, 1506.73331795844, 2975.9454281283997, 3008.37133280944, 3061.6454049219997, 3084.9794210393593, 3098.7957955031998, 3839.53063498628]

>  <ZPE_kJmol>  (1) 
208.9839162086533

>  <E_elec_kJmol>  (1) 
-407102.311185208

>  <E0_minus_Eelec_plus_ZPE_kJmol>  (1) 
0.0

>  <rxn>  (1) 
rxn_228

>  <species_type>  (1) 
r0

>  <species_folder>  (1) 
rxn_228_CCO

>  <frequencies_cm1_list>  (1) 
[261.26819047004, 286.81337586044, 426.24064579772, 804.5016651646, 891.82911747904, 1059.86424825944, 1088.932197119, 1140.44145400432, 1273.9562495810799, 1364.90260315916, 1391.5053042888399, 1416.6247365893998, 1475.59153953224, 1480.8997191846001, 1506.73331795844, 2975.9454281283997, 3008.37133280944, 3061.6454049219997, 3084.9794210393593, 3098.7957955031998, 3839.53063498628]

>  <E0_kJmol>  (1) 
-406893

>  <H298_kJmol>  (1) 
-406880

$$$$

     RDKit          3D

  4  3  0  0  0  0  0  0  0  0999 V2000
   -1.2550   -0.2465   -0.0129 H   0  0  0  0  0  0  0  0  0  1  0  0
   -0.3598   -0.5932   -0.0069 O   0  0  0  0  0  0  0  0  0  2  0  0
    0.4169    0.5567   -0.0479 O   0  0  0  0  0  0  0  0  0  3  0  0
    0.6014    0.7284    0.8832 H   0  0  0  0  0  0  0  0  0  4  0  0
  1  2  1  0
  2  3  1  0
  3  4  1  0
M  END
>  <rmg_smiles>  (2) 
OO

>  <rmg_adjacency_list>  (2) 
1 H u0 p0 c0 {2,S}
2 O u0 p2 c0 {1,S} {3,S}
3 O u0 p2 c0 {2,S} {4,S}
4 H u0 p0 c0 {3,S}


>  <multiplicity>  (2) 
1

>  <reaction>  (2) 
rxn_228

>  <type>  (2) 
r2h

>  <role_mapnums>  (2) 
{"r2h_a": 2, "r2h_h": 1}

>  <role_mapidx>  (2) 
{"r2h_a": 1, "r2h_h": 0}

>  <ordered_mapped_smiles>  (2) 
[H:1][O:2][O:3][H:4]

>  <mol_properties>  (2) 
{"0": {"label": "a_hydrogen", "atom_type": "H0"}, "1": {"label": "acceptor", "atom_type": "O2s"}}

>  <level_of_theory>  (2) 
wb97xd/def2tzvp

>  <lot_method>  (2) 
wb97xd

>  <lot_basis>  (2) 
def2tzvp

>  <spin_multiplicity>  (2) 
1.0

>  <optical_isomers>  (2) 
2.0

>  <modes>  (2) 
IdealGasTranslation(mass=(34.0055, 'amu')),         NonlinearRotor(             inertia = ([1.6422, 18.4839, 19.1306

>  <frequency_value>  (2) 
unknown

>  <frequency_units>  (2) 
unknown

>  <frequency_list>  (2) 
unknown

>  <arkane_path>  (2) 
/home/calvin/Dropbox/PersonalFolders/Calvin/HAb_Converged/rxn_228/output/Species/rxn_228_OO/arkane/output.py

>  <path_exists>  (2) 
True

>  <E0_value>  (2) 
-397869.6784032715

>  <E0_units>  (2) 
kJ/mol

>  <thermo_class>  (2) 
NASA

>  <Cp0_value>  (2) 
33.257888

>  <Cp0_units>  (2) 
J/(mol*K)

>  <CpInf_value>  (2) 
83.14472

>  <CpInf_units>  (2) 
J/(mol*K)

>  <Tmin_value>  (2) 
10.0

>  <Tmin_units>  (2) 
K

>  <Tmax_value>  (2) 
3000.0

>  <Tmax_units>  (2) 
K

>  <polynomials>  (2) 
[{"name": "polynomial1", "class": "NASAPolynomial", "Tmin_value": 10.0, "Tmin_units": "K", "Tmax_value": 455.78106288096404, "Tmax_units": "K", "coeffs": [3.993411036033662, 0.00039597769380578143, 1.891318343950514e-05, -3.2458663273975925e-08, 1.830389461818306e-11, -47852668.906908266, 4.504010200645888]}, {"name": "polynomial2", "class": "NASAPolynomial", "Tmin_value": 455.78106288096404, "Tmin_units": "K", "Tmax_value": 3000.0, "Tmax_units": "K", "coeffs": [3.1932894099772424, 0.0074090928900088, -4.13817425256861e-06, 1.2156565940750795e-09, -1.433593106081876e-13, -47852595.87875142, 7.736455149271243]}]

>  <H298_value>  (2) 
-95090.51348489316

>  <H298_units>  (2) 
kcal/mol

>  <S298_value>  (2) 
55.5670496873013

>  <S298_units>  (2) 
cal/(mol*K)

>  <Cp_T_value_list>  (2) 
[10.107465812395086, 11.06702468787646, 11.935737360557455, 12.7042208397447, 13.981643941817545, 14.976592388023054, 16.639120825815006, 17.666826111390996, 18.25874653130484]

>  <Cp_T_units>  (2) 
cal/(mol*K)

>  <T_list>  (2) 
[300.0, 400.0, 500.0, 600.0, 800.0, 1000.0, 1500.0, 2000.0, 2400.0]

>  <T_units>  (2) 
K

>  <yaml_path>  (2) 
/home/calvin/Dropbox/PersonalFolders/Calvin/HAb_Converged/rxn_228/output/Species/rxn_228_OO/rxn_228_OO.yml

>  <frequencies_cm1>  (2) 
[384.68165064108, 1007.86056843108, 1337.5514006295998, 1458.46527814416, 3787.7329647175193, 3788.3509933963196]

>  <ZPE_kJmol>  (2) 
70.36821125363778

>  <E_elec_kJmol>  (2) 
-397940.04661452514

>  <E0_minus_Eelec_plus_ZPE_kJmol>  (2) 
0.0

>  <rxn>  (2) 
rxn_228

>  <species_type>  (2) 
p1

>  <species_folder>  (2) 
rxn_228_OO

>  <frequencies_cm1_list>  (2) 
[384.68165064108, 1007.86056843108, 1337.5514006295998, 1458.46527814416, 3787.7329647175193, 3788.3509933963196]

>  <E0_kJmol>  (2) 
-397870

>  <H298_kJmol>  (2) 
-397859

$$$$

     RDKit          3D

 12 10  0  0  0  0  0  0  0  0999 V2000
   -1.3817    0.0872   -1.4641 C   0  0  0  0  0  0  0  0  0  1  0  0
   -1.0764    0.1078    0.0085 C   0  0  0  0  0  3  0  0  0  2  0  0
   -0.6639    1.3120    0.5263 O   0  0  0  0  0  0  0  0  0  3  0  0
   -0.5054    0.3880   -2.0436 H   0  0  0  0  0  0  0  0  0  4  0  0
   -1.6615   -0.9183   -1.7781 H   0  0  0  0  0  0  0  0  0  5  0  0
   -2.2043    0.7695   -1.6968 H   0  0  0  0  0  0  0  0  0  6  0  0
   -0.0447   -0.6867    0.1301 H   0  0  0  0  0  0  0  0  0  7  0  0
   -1.8471   -0.3080    0.6559 H   0  0  0  0  0  0  0  0  0  8  0  0
    0.0341    1.6619   -0.0373 H   0  0  0  0  0  0  0  0  0  9  0  0
    1.1023   -1.1310    0.1379 O   0  0  0  0  0  0  0  0  0 10  0  0
    1.8790    0.0190    0.0968 O   0  0  0  0  0  0  0  0  0 11  0  0
    2.0636    0.1906    1.0280 H   0  0  0  0  0  0  0  0  0 12  0  0
  1  5  1  0
  1  4  1  0
  1  6  1  0
  1  2  1  0
  2  8  1  0
  2  3  1  0
  3  9  1  0
  7 10  1  0
 10 11  1  0
 11 12  1  0
M  RAD  1   2   2
M  END
>  <rmg_smiles>  (3) 
C[CH]O.OO

>  <rmg_adjacency_list>  (3) 
multiplicity 2
1  O u0 p2 c0 {5,S} {10,S}
2  O u0 p2 c0 {3,S} {11,S}
3  O u0 p2 c0 {2,S} {12,S}
4  C u0 p0 c0 {5,S} {6,S} {7,S} {8,S}
5  C u1 p0 c0 {1,S} {4,S} {9,S}
6  H u0 p0 c0 {4,S}
7  H u0 p0 c0 {4,S}
8  H u0 p0 c0 {4,S}
9  H u0 p0 c0 {5,S}
10 H u0 p0 c0 {1,S}
11 H u0 p0 c0 {2,S}
12 H u0 p0 c0 {3,S}


>  <multiplicity>  (3) 
2

>  <reaction>  (3) 
rxn_228

>  <type>  (3) 
ts

>  <role_mapnums>  (3) 
{"*2": 7, "*1": 2, "*3": 10, "*0": 11, "*4": 3}

>  <role_mapidx>  (3) 
{"*2": 6, "*1": 1, "*3": 9, "*0": 10, "*4": 2}

>  <ordered_mapped_smiles>  (3) 
[C:1]([C:2]([O:3][H:9])[H:8])([H:4])([H:5])[H:6].[H:7][O:10][O:11][H:12]

>  <mol_properties>  (3) 
{"1": {"label": "*1", "atom_type": "Cs"}, "2": {"label": "*4", "atom_type": "O2s"}, "6": {"label": "*2", "atom_type": "H0"}, "9": {"label": "*3", "atom_type": "O2s"}, "10": {"label": "*0", "atom_type": "O2s"}}

>  <level_of_theory>  (3) 
wb97xd/def2tzvp

>  <lot_method>  (3) 
wb97xd

>  <lot_basis>  (3) 
def2tzvp

>  <spin_multiplicity>  (3) 
2.0

>  <optical_isomers>  (3) 
2.0

>  <modes>  (3) 
IdealGasTranslation(mass=(79.0395, 'amu')),         NonlinearRotor(             inertia = ([73.4972, 174.72, 210.467

>  <frequency_value>  (3) 
-1695.26

>  <frequency_units>  (3) 
cm^-1

>  <frequency_list>  (3) 
unknown

>  <arkane_path>  (3) 
/home/calvin/Dropbox/PersonalFolders/Calvin/HAb_Converged/rxn_228/output/rxns/TS0/arkane/output.py

>  <path_exists>  (3) 
True

>  <E0_value>  (3) 
-803055.0

>  <E0_units>  (3) 
kJ/mol

>  <thermo_class>  (3) 
unknown

>  <Cp0_value>  (3) 
unknown

>  <Cp0_units>  (3) 
unknown

>  <CpInf_value>  (3) 
unknown

>  <CpInf_units>  (3) 
unknown

>  <Tmin_value>  (3) 
unknown

>  <Tmin_units>  (3) 
unknown

>  <Tmax_value>  (3) 
unknown

>  <Tmax_units>  (3) 
unknown

>  <polynomials>  (3) 
unknown

>  <H298_value>  (3) 
unknown

>  <H298_units>  (3) 
unknown

>  <S298_value>  (3) 
unknown

>  <S298_units>  (3) 
unknown

>  <Cp_T_value_list>  (3) 
unknown

>  <Cp_T_units>  (3) 
unknown

>  <T_list>  (3) 
unknown

>  <T_units>  (3) 
unknown

>  <yaml_path>  (3) 
unknown

>  <frequencies_cm1>  (3) 
unknown

>  <ZPE_kJmol>  (3) 
unknown

>  <E_elec_kJmol>  (3) 
unknown

>  <E0_minus_Eelec_plus_ZPE_kJmol>  (3) 
unknown

>  <rxn>  (3) 
unknown

>  <species_type>  (3) 
unknown

>  <species_folder>  (3) 
unknown

>  <frequencies_cm1_list>  (3) 
[]

>  <ts_imag_freq_cm1>  (3) 
-1715.8471

>  <ts_freq_out_path>  (3) 
/home/calvin/Dropbox/PersonalFolders/Calvin/HAb_Converged/rxn_228/output/rxns/TS0/geometry/freq.out

>  <E0_kJmol>  (3) 
-803055

>  <H298_kJmol>  (3) 
unknown

$$$$

     RDKit          3D

  8  7  0  0  0  0  0  0  0  0999 V2000
   -0.9179    0.2391    0.1982 C   0  0  0  0  0  0  0  0  0  1  0  0
    0.4678   -0.2407    0.0057 C   0  0  0  0  0  3  0  0  0  2  0  0
    0.5690   -1.5483   -0.3772 O   0  0  0  0  0  0  0  0  0  3  0  0
   -1.4185   -0.2635    1.0380 H   0  0  0  0  0  0  0  0  0  4  0  0
   -0.9217    1.3106    0.3990 H   0  0  0  0  0  0  0  0  0  5  0  0
   -1.5211    0.0525   -0.6941 H   0  0  0  0  0  0  0  0  0  6  0  0
    1.2867    0.1607    0.5960 H   0  0  0  0  0  0  0  0  0  7  0  0
    1.4925   -1.7959   -0.4346 H   0  0  0  0  0  0  0  0  0  8  0  0
  1  5  1  0
  1  4  1  0
  1  6  1  0
  1  2  1  0
  2  7  1  0
  2  3  1  0
  3  8  1  0
M  RAD  1   2   2
M  END
>  <rmg_smiles>  (4) 
C[CH]O

>  <rmg_adjacency_list>  (4) 
multiplicity 2
1 O u0 p2 c0 {3,S} {8,S}
2 C u0 p0 c0 {3,S} {4,S} {5,S} {6,S}
3 C u1 p0 c0 {1,S} {2,S} {7,S}
4 H u0 p0 c0 {2,S}
5 H u0 p0 c0 {2,S}
6 H u0 p0 c0 {2,S}
7 H u0 p0 c0 {3,S}
8 H u0 p0 c0 {1,S}


>  <multiplicity>  (4) 
2

>  <reaction>  (4) 
rxn_228

>  <type>  (4) 
r1

>  <role_mapnums>  (4) 
{}

>  <role_mapidx>  (4) 
{}

>  <ordered_mapped_smiles>  (4) 
[C:1]([C:2]([O:3][H:8])[H:7])([H:4])([H:5])[H:6]

>  <level_of_theory>  (4) 
wb97xd/def2tzvp

>  <lot_method>  (4) 
wb97xd

>  <lot_basis>  (4) 
def2tzvp

>  <spin_multiplicity>  (4) 
2.0

>  <optical_isomers>  (4) 
2.0

>  <modes>  (4) 
IdealGasTranslation(mass=(45.034, 'amu')),         NonlinearRotor(             inertia = ([10.8338, 53.2179, 60.5982

>  <frequency_value>  (4) 
unknown

>  <frequency_units>  (4) 
unknown

>  <frequency_list>  (4) 
unknown

>  <arkane_path>  (4) 
/home/calvin/Dropbox/PersonalFolders/Calvin/HAb_Converged/rxn_228/output/Species/rxn_228_C[CH]O/arkane/output.py

>  <path_exists>  (4) 
True

>  <E0_value>  (4) 
-405194.8000162578

>  <E0_units>  (4) 
kJ/mol

>  <thermo_class>  (4) 
NASA

>  <Cp0_value>  (4) 
33.257888

>  <Cp0_units>  (4) 
J/(mol*K)

>  <CpInf_value>  (4) 
182.918384

>  <CpInf_units>  (4) 
J/(mol*K)

>  <Tmin_value>  (4) 
10.0

>  <Tmin_units>  (4) 
K

>  <Tmax_value>  (4) 
3000.0

>  <Tmax_units>  (4) 
K

>  <polynomials>  (4) 
[{"name": "polynomial1", "class": "NASAPolynomial", "Tmin_value": 10.0, "Tmin_units": "K", "Tmax_value": 399.2832493381708, "Tmax_units": "K", "coeffs": [3.9438398920225994, 0.004002960576649006, 6.200300269203107e-05, -1.2212118228346168e-07, 7.834534999476901e-11, -48733676.15855779, 8.433363259580258]}, {"name": "polynomial2", "class": "NASAPolynomial", "Tmin_value": 399.2832493381708, "Tmin_units": "K", "Tmax_value": 3000.0, "Tmax_units": "K", "coeffs": [1.9426758098161108, 0.024050507702498048, -1.3310189265170867e-05, 3.6260247532651186e-09, -3.8766974554634176e-13, -48733516.35216716, 16.250587660190693]}]

>  <H298_value>  (4) 
-96840.50777272848

>  <H298_units>  (4) 
kcal/mol

>  <S298_value>  (4) 
67.41584770758323

>  <S298_units>  (4) 
cal/(mol*K)

>  <Cp_T_value_list>  (4) 
[16.02150211039674, 19.187253473443707, 21.997195723568073, 24.47104040870294, 28.540847956010495, 31.639008743253232, 36.456827392518264, 38.96597224844886, 40.263622696376025]

>  <Cp_T_units>  (4) 
cal/(mol*K)

>  <T_list>  (4) 
[300.0, 400.0, 500.0, 600.0, 800.0, 1000.0, 1500.0, 2000.0, 2400.0]

>  <T_units>  (4) 
K

>  <yaml_path>  (4) 
/home/calvin/Dropbox/PersonalFolders/Calvin/HAb_Converged/rxn_228/output/Species/rxn_228_C[CH]O/rxn_228_CCHO.yml

>  <frequencies_cm1>  (4) 
[178.27380589252002, 359.24633701579995, 410.21996904616, 560.5520116716, 930.3872400508399, 1013.14128014216, 1057.07625221952, 1218.6495498138, 1274.169126126, 1382.02886454724, 1444.1819486785598, 1454.19401327512, 1476.1477653431598, 2951.5607632570795, 3038.31138880464, 3095.78805593304, 3116.8490999094797, 3859.56849815004]

>  <ZPE_kJmol>  (4) 
172.38399996000294

>  <E_elec_kJmol>  (4) 
-405367.1840162178

>  <E0_minus_Eelec_plus_ZPE_kJmol>  (4) 
0.0

>  <rxn>  (4) 
rxn_228

>  <species_type>  (4) 
p0

>  <species_folder>  (4) 
rxn_228_C[CH]O

>  <frequencies_cm1_list>  (4) 
[178.27380589252002, 359.24633701579995, 410.21996904616, 560.5520116716, 930.3872400508399, 1013.14128014216, 1057.07625221952, 1218.6495498138, 1274.169126126, 1382.02886454724, 1444.1819486785598, 1454.19401327512, 1476.1477653431598, 2951.5607632570795, 3038.31138880464, 3095.78805593304, 3116.8490999094797, 3859.56849815004]

>  <E0_kJmol>  (4) 
-405195

>  <H298_kJmol>  (4) 
-405181

$$$$

     RDKit          3D

  3  2  0  0  0  0  0  0  0  0999 V2000
    0.9943   -0.1797    0.0000 O   0  0  0  0  0  1  0  0  0  1  0  0
   -0.1595    0.4394    0.0000 O   0  0  0  0  0  0  0  0  0  2  0  0
   -0.8348   -0.2597    0.0000 H   0  0  0  0  0  0  0  0  0  3  0  0
  1  2  1  0
  2  3  1  0
M  RAD  1   1   2
M  END
>  <rmg_smiles>  (5) 
[O]O

>  <rmg_adjacency_list>  (5) 
multiplicity 2
1 O u1 p2 c0 {2,S}
2 O u0 p2 c0 {1,S} {3,S}
3 H u0 p0 c0 {2,S}


>  <multiplicity>  (5) 
2

>  <reaction>  (5) 
rxn_228

>  <type>  (5) 
r2

>  <role_mapnums>  (5) 
{}

>  <role_mapidx>  (5) 
{}

>  <ordered_mapped_smiles>  (5) 
[O:1][O:2][H:3]

>  <level_of_theory>  (5) 
wb97xd/def2tzvp

>  <lot_method>  (5) 
wb97xd

>  <lot_basis>  (5) 
def2tzvp

>  <spin_multiplicity>  (5) 
2.0

>  <optical_isomers>  (5) 
1.0

>  <modes>  (5) 
IdealGasTranslation(mass=(32.9977, 'amu')),         NonlinearRotor(             inertia = ([0.803517, 14.5889, 15.3924

>  <frequency_value>  (5) 
unknown

>  <frequency_units>  (5) 
unknown

>  <frequency_list>  (5) 
unknown

>  <arkane_path>  (5) 
/home/calvin/Dropbox/PersonalFolders/Calvin/HAb_Converged/rxn_228/output/Species/rxn_228_[O]O/arkane/output.py

>  <path_exists>  (5) 
True

>  <E0_value>  (5) 
-396214.7927695905

>  <E0_units>  (5) 
kJ/mol

>  <thermo_class>  (5) 
NASA

>  <Cp0_value>  (5) 
33.257888

>  <Cp0_units>  (5) 
J/(mol*K)

>  <CpInf_value>  (5) 
58.201304

>  <CpInf_units>  (5) 
J/(mol*K)

>  <Tmin_value>  (5) 
10.0

>  <Tmin_units>  (5) 
K

>  <Tmax_value>  (5) 
3000.0

>  <Tmax_units>  (5) 
K

>  <polynomials>  (5) 
[{"name": "polynomial1", "class": "NASAPolynomial", "Tmin_value": 10.0, "Tmin_units": "K", "Tmax_value": 938.1901641883775, "Tmax_units": "K", "coeffs": [4.028900763568748, -0.0017001850192041605, 1.0116513729421136e-05, -1.0102502975955476e-08, 3.2943616799556636e-12, -47653633.38795187, 4.661311963627797]}, {"name": "polynomial2", "class": "NASAPolynomial", "Tmin_value": 938.1901641883775, "Tmin_units": "K", "Tmax_value": 3000.0, "Tmax_units": "K", "coeffs": [3.0224709900106443, 0.00428209217697721, -2.152234978217665e-06, 5.370565329041951e-10, -5.2799153043016775e-14, -47653518.97920004, 9.055842364041489]}]

>  <H298_value>  (5) 
-94695.23338060976

>  <H298_units>  (5) 
kcal/mol

>  <S298_value>  (5) 
54.59701487407024

>  <S298_units>  (5) 
cal/(mol*K)

>  <Cp_T_value_list>  (5) 
[8.312978103030632, 8.754130351990018, 9.242540000567846, 9.728455522252242, 10.572357002256187, 11.201059485179156, 12.218042363471625, 12.776508208459937, 13.066159106759592]

>  <Cp_T_units>  (5) 
cal/(mol*K)

>  <T_list>  (5) 
[300.0, 400.0, 500.0, 600.0, 800.0, 1000.0, 1500.0, 2000.0, 2400.0]

>  <T_units>  (5) 
K

>  <yaml_path>  (5) 
/home/calvin/Dropbox/PersonalFolders/Calvin/HAb_Converged/rxn_228/output/Species/rxn_228_[O]O/rxn_228_OO.yml

>  <frequencies_cm1>  (5) 
[1229.25217514788, 1446.77766912952, 3624.6283293968795]

>  <ZPE_kJmol>  (5) 
37.68631575394318

>  <E_elec_kJmol>  (5) 
-396252.4790853445

>  <E0_minus_Eelec_plus_ZPE_kJmol>  (5) 
0.0

>  <rxn>  (5) 
rxn_228

>  <species_type>  (5) 
r1

>  <species_folder>  (5) 
rxn_228_[O]O

>  <frequencies_cm1_list>  (5) 
[1229.25217514788, 1446.77766912952, 3624.6283293968795]

>  <E0_kJmol>  (5) 
-396215

>  <H298_kJmol>  (5) 
-396205

$$$$
