
     RDKit          3D

  9  8  0  0  0  0  0  0  0  0999 V2000
   -0.1334   -0.1223   -1.2573 C   0  0  0  0  0  0  0  0  0  1  0  0
    0.0200   -0.4498    0.0260 C   0  0  0  0  0  0  0  0  0  2  0  0
    0.1345    0.4993    1.1320 C   0  0  0  0  0  0  0  0  0  3  0  0
   -0.2445   -0.8775   -2.0246 H   0  0  0  0  0  0  0  0  0  4  0  0
   -0.1427    0.9139   -1.5779 H   0  0  0  0  0  0  0  0  0  5  0  0
    0.0233   -1.5043    0.2910 H   0  0  0  0  0  0  0  0  0  6  0  0
   -0.8371    0.6387    1.6024 H   0  0  0  0  0  0  0  0  0  7  0  0
    0.3931    1.5138    0.8328 H   0  0  0  0  0  0  0  0  0  8  0  0
    0.7369    0.1565    1.9708 H   0  0  0  0  0  0  0  0  0  9  0  0
  1  5  1  0
  1  4  1  0
  1  2  1  0
  2  6  1  0
  2  3  1  0
  3  8  1  0
  3  7  1  0
  3  9  1  0
M  END
>  <rmg_smiles>  (1) 
[CH2][CH]C

>  <rmg_adjacency_list>  (1) 
1 C u0 p0 c0 {2,S} {4,S} {5,S} {6,S}
2 C u0 p0 c0 {1,S} {3,S} {7,S}
3 C u0 p0 c0 {2,S} {8,S} {9,S}
4 H u0 p0 c0 {1,S}
5 H u0 p0 c0 {1,S}
6 H u0 p0 c0 {1,S}
7 H u0 p0 c0 {2,S}
8 H u0 p0 c0 {3,S}
9 H u0 p0 c0 {3,S}


>  <multiplicity>  (1) 
1

>  <reaction>  (1) 
rxn_16

>  <type>  (1) 
r1h

>  <role_mapnums>  (1) 
{"r1h_a": 3, "r1h_h": 7}

>  <role_mapidx>  (1) 
{"r1h_a": 2, "r1h_h": 6}

>  <ordered_mapped_smiles>  (1) 
[CH:1]([CH:2]([C:3]([H:7])([H:8])[H:9])[H:6])([H:4])[H:5]

>  <mol_properties>  (1) 
{"2": {"label": "donator", "atom_type": "Cs"}, "6": {"label": "d_hydrogen", "atom_type": "H0"}}

>  <level_of_theory>  (1) 
wb97xd/def2tzvp

>  <lot_method>  (1) 
wb97xd

>  <lot_basis>  (1) 
def2tzvp

>  <spin_multiplicity>  (1) 
1.0

>  <optical_isomers>  (1) 
1.0

>  <modes>  (1) 
IdealGasTranslation(mass=(42.047, 'amu')),         NonlinearRotor(             inertia = ([10.7194, 53.9495, 61.5633

>  <frequency_value>  (1) 
unknown

>  <frequency_units>  (1) 
unknown

>  <frequency_list>  (1) 
unknown

>  <arkane_path>  (1) 
/home/calvin/Dropbox/PersonalFolders/Calvin/HAb_Converged/rxn_16/output/Species/rxn_16_C=CC/arkane/output.py

>  <path_exists>  (1) 
True

>  <E0_value>  (1) 
-309367.88070268225

>  <E0_units>  (1) 
kJ/mol

>  <thermo_class>  (1) 
NASA

>  <Cp0_value>  (1) 
33.257888

>  <Cp0_units>  (1) 
J/(mol*K)

>  <CpInf_value>  (1) 
207.8618

>  <CpInf_units>  (1) 
J/(mol*K)

>  <Tmin_value>  (1) 
10.0

>  <Tmin_units>  (1) 
K

>  <Tmax_value>  (1) 
3000.0

>  <Tmax_units>  (1) 
K

>  <polynomials>  (1) 
[{"name": "polynomial1", "class": "NASAPolynomial", "Tmin_value": 10.0, "Tmin_units": "K", "Tmax_value": 532.0577202057873, "Tmax_units": "K", "coeffs": [4.020103835302654, -0.0017074980479917085, 7.459046034705118e-05, -1.1023396025676474e-07, 5.3481197627967796e-11, -37208361.301710494, 6.986181334463051]}, {"name": "polynomial2", "class": "NASAPolynomial", "Tmin_value": 532.0577202057873, "Tmin_units": "K", "Tmax_value": 3000.0, "Tmax_units": "K", "coeffs": [-0.30507671788284774, 0.030809359218709958, -1.7083112014376123e-05, 4.633555316648191e-09, -4.924250044802513e-13, -37207901.05583462, 25.12344343354427]}]

>  <H298_value>  (1) 
-73937.54186756606

>  <H298_units>  (1) 
kcal/mol

>  <S298_value>  (1) 
63.24337268320408

>  <S298_units>  (1) 
cal/(mol*K)

>  <Cp_T_value_list>  (1) 
[15.257526344712856, 19.04881200484783, 22.609043962382263, 25.769394717679983, 30.960482554899503, 34.89991831876069, 40.970847866509764, 44.05802967631756, 45.61721763006197]

>  <Cp_T_units>  (1) 
cal/(mol*K)

>  <T_list>  (1) 
[300.0, 400.0, 500.0, 600.0, 800.0, 1000.0, 1500.0, 2000.0, 2400.0]

>  <T_units>  (1) 
K

>  <yaml_path>  (1) 
/home/calvin/Dropbox/PersonalFolders/Calvin/HAb_Converged/rxn_16/output/Species/rxn_16_C=CC/rxn_16_C=CC.yml

>  <frequencies_cm1>  (1) 
[200.09708523947998, 429.33078919172, 590.7049442117201, 925.49107951768, 943.8671322339999, 950.17102475776, 1024.49240687612, 1068.78446219012, 1186.6081963106801, 1322.3410281457998, 1395.89330790832, 1440.30896895808, 1465.7442825833598, 1480.7692464635202, 1719.664798761, 3008.0348505287598, 3066.795643912, 3091.69533268232, 3111.44478246264, 3123.9495627303595, 3201.2649504482397]

>  <ZPE_kJmol>  (1) 
207.83598829281505

>  <E_elec_kJmol>  (1) 
-309575.71669097507

>  <E0_minus_Eelec_plus_ZPE_kJmol>  (1) 
0.0

>  <rxn>  (1) 
rxn_16

>  <species_type>  (1) 
r0

>  <species_folder>  (1) 
rxn_16_C=CC

>  <frequencies_cm1_list>  (1) 
[200.09708523947998, 429.33078919172, 590.7049442117201, 925.49107951768, 943.8671322339999, 950.17102475776, 1024.49240687612, 1068.78446219012, 1186.6081963106801, 1322.3410281457998, 1395.89330790832, 1440.30896895808, 1465.7442825833598, 1480.7692464635202, 1719.664798761, 3008.0348505287598, 3066.795643912, 3091.69533268232, 3111.44478246264, 3123.9495627303595, 3201.2649504482397]

>  <E0_kJmol>  (1) 
-309368

>  <H298_kJmol>  (1) 
-309355

$$$$

     RDKit          3D

 15 14  0  0  0  0  0  0  0  0999 V2000
    1.2608    1.3034   -0.7766 H   0  0  0  0  0  0  0  0  0  1  0  0
    0.3467    1.5178   -0.2283 C   0  0  0  0  0  0  0  0  0  2  0  0
   -0.4878    0.2660   -0.2500 C   0  0  0  0  0  0  0  0  0  3  0  0
   -1.0040   -0.0561   -1.6501 C   0  0  0  0  0  0  0  0  0  4  0  0
    0.2727   -0.9296    0.3236 C   0  0  0  0  0  0  0  0  0  5  0  0
    0.7640   -0.7167    1.6307 O   0  0  0  0  0  0  0  0  0  6  0  0
    0.7535    1.7902    0.7416 H   0  0  0  0  0  0  0  0  0  7  0  0
   -0.0656    2.3638   -0.7740 H   0  0  0  0  0  0  0  0  0  8  0  0
   -1.3619    0.4295    0.4016 H   0  0  0  0  0  0  0  0  0  9  0  0
   -1.6258   -0.9539   -1.6467 H   0  0  0  0  0  0  0  0  0 10  0  0
   -1.6054    0.7671   -2.0388 H   0  0  0  0  0  0  0  0  0 11  0  0
   -0.1750   -0.2158   -2.3425 H   0  0  0  0  0  0  0  0  0 12  0  0
   -0.3690   -1.8194    0.2878 H   0  0  0  0  0  0  0  0  0 13  0  0
    1.1499   -1.1347   -0.2937 H   0  0  0  0  0  0  0  0  0 14  0  0
    0.0181   -0.5921    2.2197 H   0  0  0  0  0  0  0  0  0 15  0  0
  1  2  1  0
  2  8  1  0
  2  7  1  0
  2  3  1  0
  3  4  1  0
  3  5  1  0
  3  9  1  0
  4 12  1  0
  4 10  1  0
  4 11  1  0
  5  6  1  0
  5 14  1  0
  5 13  1  0
  6 15  1  0
M  END
>  <rmg_smiles>  (2) 
CC(C)CO

>  <rmg_adjacency_list>  (2) 
1  O u0 p2 c0 {3,S} {15,S}
2  C u0 p0 c0 {3,S} {4,S} {5,S} {6,S}
3  C u0 p0 c0 {1,S} {2,S} {7,S} {8,S}
4  C u0 p0 c0 {2,S} {9,S} {10,S} {11,S}
5  C u0 p0 c0 {2,S} {12,S} {13,S} {14,S}
6  H u0 p0 c0 {2,S}
7  H u0 p0 c0 {3,S}
8  H u0 p0 c0 {3,S}
9  H u0 p0 c0 {4,S}
10 H u0 p0 c0 {4,S}
11 H u0 p0 c0 {4,S}
12 H u0 p0 c0 {5,S}
13 H u0 p0 c0 {5,S}
14 H u0 p0 c0 {5,S}
15 H u0 p0 c0 {1,S}


>  <multiplicity>  (2) 
1

>  <reaction>  (2) 
rxn_16

>  <type>  (2) 
r2h

>  <role_mapnums>  (2) 
{"r2h_a": 2, "r2h_h": 1}

>  <role_mapidx>  (2) 
{"r2h_a": 1, "r2h_h": 0}

>  <ordered_mapped_smiles>  (2) 
[H:1][C:2]([C:3]([C:4]([H:10])([H:11])[H:12])([C:5]([O:6][H:15])([H:13])[H:14])[H:9])([H:7])[H:8]

>  <mol_properties>  (2) 
{"0": {"label": "a_hydrogen", "atom_type": "H0"}, "1": {"label": "acceptor", "atom_type": "Cs"}}

>  <level_of_theory>  (2) 
wb97xd/def2tzvp

>  <lot_method>  (2) 
wb97xd

>  <lot_basis>  (2) 
def2tzvp

>  <spin_multiplicity>  (2) 
1.0

>  <optical_isomers>  (2) 
2.0

>  <modes>  (2) 
IdealGasTranslation(mass=(74.0732, 'amu')),         NonlinearRotor(             inertia = ([66.603, 143.905, 189.515

>  <frequency_value>  (2) 
unknown

>  <frequency_units>  (2) 
unknown

>  <frequency_list>  (2) 
unknown

>  <arkane_path>  (2) 
/home/calvin/Dropbox/PersonalFolders/Calvin/HAb_Converged/rxn_16/output/Species/rxn_16_CC[C]CO/arkane/output.py

>  <path_exists>  (2) 
True

>  <E0_value>  (2) 
-613201.7985649897

>  <E0_units>  (2) 
kJ/mol

>  <thermo_class>  (2) 
NASA

>  <Cp0_value>  (2) 
33.257888

>  <Cp0_units>  (2) 
J/(mol*K)

>  <CpInf_value>  (2) 
357.522296

>  <CpInf_units>  (2) 
J/(mol*K)

>  <Tmin_value>  (2) 
10.0

>  <Tmin_units>  (2) 
K

>  <Tmax_value>  (2) 
3000.0

>  <Tmax_units>  (2) 
K

>  <polynomials>  (2) 
[{"name": "polynomial1", "class": "NASAPolynomial", "Tmin_value": 10.0, "Tmin_units": "K", "Tmax_value": 575.0820722549333, "Tmax_units": "K", "coeffs": [3.712801150495733, 0.023418492048998256, 4.9452172840161095e-05, -8.421860970236057e-08, 3.934217938274299e-11, -73751136.90771984, 10.481378155357929]}, {"name": "polynomial2", "class": "NASAPolynomial", "Tmin_value": 575.0820722549333, "Tmin_units": "K", "Tmax_value": 3000.0, "Tmax_units": "K", "coeffs": [-0.6878623504423118, 0.054027748373386184, -3.0387484216706206e-05, 8.33684724444376e-09, -8.939933047326686e-13, -73750630.76437442, 29.27735644774587]}]

>  <H298_value>  (2) 
-146553.90002459448

>  <H298_units>  (2) 
kcal/mol

>  <S298_value>  (2) 
79.77182452223813

>  <S298_units>  (2) 
cal/(mol*K)

>  <Cp_T_value_list>  (2) 
[26.298320243180413, 33.00693242629291, 39.1810558194892, 44.6608561300836, 53.63198611709804, 60.40164981657028, 70.7305199017492, 75.92834375358102, 78.5639083460816]

>  <Cp_T_units>  (2) 
cal/(mol*K)

>  <T_list>  (2) 
[300.0, 400.0, 500.0, 600.0, 800.0, 1000.0, 1500.0, 2000.0, 2400.0]

>  <T_units>  (2) 
K

>  <yaml_path>  (2) 
/home/calvin/Dropbox/PersonalFolders/Calvin/HAb_Converged/rxn_16/output/Species/rxn_16_CC[C]CO/rxn_16_CCCCO.yml

>  <frequencies_cm1>  (2) 
[130.82980431664, 216.90746530284, 234.24660323583998, 266.73431078476, 284.47860085163995, 352.62656316731994, 430.94453074191995, 496.53797451855996, 825.04768524204, 903.1871111983199, 929.80354629864, 953.3298380049599, 972.0423730019598, 1079.3527525975999, 1116.63361589988, 1149.4440717588398, 1195.51467627072, 1246.91406139092, 1321.76420137892, 1364.46311609868, 1379.29580438988, 1394.3345022406797, 1400.81006939744, 1419.04878240736, 1474.01899989396, 1475.3855299726397, 1489.2293723777598, 1494.17360180816, 1499.15903315048, 2968.2200696433997, 2974.66816885888, 3005.13698272372, 3008.8176868552396, 3047.7397596489996, 3073.490954599, 3077.90642615976, 3086.88844295832, 3102.6138393411197, 3839.6679746926798]

>  <ZPE_kJmol>  (2) 
356.9742015148605

>  <E_elec_kJmol>  (2) 
-613558.7727665046

>  <E0_minus_Eelec_plus_ZPE_kJmol>  (2) 
0.0

>  <rxn>  (2) 
rxn_16

>  <species_type>  (2) 
p1

>  <species_folder>  (2) 
rxn_16_CC[C]CO

>  <frequencies_cm1_list>  (2) 
[130.82980431664, 216.90746530284, 234.24660323583998, 266.73431078476, 284.47860085163995, 352.62656316731994, 430.94453074191995, 496.53797451855996, 825.04768524204, 903.1871111983199, 929.80354629864, 953.3298380049599, 972.0423730019598, 1079.3527525975999, 1116.63361589988, 1149.4440717588398, 1195.51467627072, 1246.91406139092, 1321.76420137892, 1364.46311609868, 1379.29580438988, 1394.3345022406797, 1400.81006939744, 1419.04878240736, 1474.01899989396, 1475.3855299726397, 1489.2293723777598, 1494.17360180816, 1499.15903315048, 2968.2200696433997, 2974.66816885888, 3005.13698272372, 3008.8176868552396, 3047.7397596489996, 3073.490954599, 3077.90642615976, 3086.88844295832, 3102.6138393411197, 3839.6679746926798]

>  <E0_kJmol>  (2) 
-613202

>  <H298_kJmol>  (2) 
-613182

$$$$

     RDKit          3D

 23 21  0  0  0  0  0  0  0  0999 V2000
    1.5114    0.2901   -2.9361 C   0  0  0  0  0  0  0  0  0  1  0  0
    1.6648   -0.0375   -1.6529 C   0  0  0  0  0  0  0  0  0  2  0  0
    1.7793    0.9116   -0.5468 C   0  0  0  0  0  0  0  0  0  3  0  0
    1.4003   -0.4651   -3.7034 H   0  0  0  0  0  0  0  0  0  4  0  0
    1.5021    1.3262   -3.2568 H   0  0  0  0  0  0  0  0  0  5  0  0
    1.6681   -1.0919   -1.3878 H   0  0  0  0  0  0  0  0  0  6  0  0
    0.6270    1.0769    0.0110 H   0  0  0  0  0  0  0  0  0  7  0  0
    2.0379    1.9261   -0.8460 H   0  0  0  0  0  0  0  0  0  8  0  0
    2.3817    0.5689    0.2919 H   0  0  0  0  0  0  0  0  0  9  0  0
   -0.5686    1.3573    0.7281 C   0  0  0  0  0  3  0  0  0 10  0  0
   -1.4031    0.1055    0.7065 C   0  0  0  0  0  0  0  0  0 11  0  0
   -1.9193   -0.2166   -0.6936 C   0  0  0  0  0  0  0  0  0 12  0  0
   -0.6426   -1.0901    1.2800 C   0  0  0  0  0  0  0  0  0 13  0  0
   -0.1513   -0.8771    2.5872 O   0  0  0  0  0  0  0  0  0 14  0  0
   -0.1618    1.6298    1.6981 H   0  0  0  0  0  0  0  0  0 15  0  0
   -0.9809    2.2034    0.1825 H   0  0  0  0  0  0  0  0  0 16  0  0
   -2.2772    0.2691    1.3580 H   0  0  0  0  0  0  0  0  0 17  0  0
   -2.5411   -1.1144   -0.6903 H   0  0  0  0  0  0  0  0  0 18  0  0
   -2.5207    0.6067   -1.0823 H   0  0  0  0  0  0  0  0  0 19  0  0
   -1.0903   -0.3762   -1.3860 H   0  0  0  0  0  0  0  0  0 20  0  0
   -1.2843   -1.9799    1.2442 H   0  0  0  0  0  0  0  0  0 21  0  0
    0.2345   -1.2952    0.6628 H   0  0  0  0  0  0  0  0  0 22  0  0
   -0.8972   -0.7526    3.1762 H   0  0  0  0  0  0  0  0  0 23  0  0
  1  4  1  0
  1  5  1  0
  1  2  1  0
  2  6  1  0
  2  3  1  0
  3  8  1  0
  3  7  1  0
  3  9  1  0
 10 16  1  0
 10 15  1  0
 10 11  1  0
 11 13  1  0
 11 17  1  0
 11 12  1  0
 12 19  1  0
 12 18  1  0
 12 20  1  0
 13 21  1  0
 13 22  1  0
 13 14  1  0
 14 23  1  0
M  RAD  1  10   2
M  END
>  <rmg_smiles>  (3) 
[CH2]C(C)CO.[CH2][CH]C

>  <rmg_adjacency_list>  (3) 
multiplicity 2
1  O u0 p2 c0 {3,S} {23,S}
2  C u0 p0 c0 {3,S} {4,S} {7,S} {9,S}
3  C u0 p0 c0 {1,S} {2,S} {10,S} {11,S}
4  C u0 p0 c0 {2,S} {12,S} {13,S} {14,S}
5  C u0 p0 c0 {6,S} {15,S} {16,S} {17,S}
6  C u0 p0 c0 {5,S} {8,S} {18,S}
7  C u1 p0 c0 {2,S} {19,S} {20,S}
8  C u0 p0 c0 {6,S} {21,S} {22,S}
9  H u0 p0 c0 {2,S}
10 H u0 p0 c0 {3,S}
11 H u0 p0 c0 {3,S}
12 H u0 p0 c0 {4,S}
13 H u0 p0 c0 {4,S}
14 H u0 p0 c0 {4,S}
15 H u0 p0 c0 {5,S}
16 H u0 p0 c0 {5,S}
17 H u0 p0 c0 {5,S}
18 H u0 p0 c0 {6,S}
19 H u0 p0 c0 {7,S}
20 H u0 p0 c0 {7,S}
21 H u0 p0 c0 {8,S}
22 H u0 p0 c0 {8,S}
23 H u0 p0 c0 {1,S}


>  <multiplicity>  (3) 
2

>  <reaction>  (3) 
rxn_16

>  <type>  (3) 
ts

>  <role_mapnums>  (3) 
{"*2": 7, "*1": 3, "*3": 10, "*0": 2, "*4": 11}

>  <role_mapidx>  (3) 
{"*2": 6, "*1": 2, "*3": 9, "*0": 1, "*4": 10}

>  <ordered_mapped_smiles>  (3) 
[CH:1]([CH:2]([C:3]([H:7])([H:8])[H:9])[H:6])([H:4])[H:5].[C:10]([C:11]([C:12]([H:18])([H:19])[H:20])([C:13]([O:14][H:23])([H:21])[H:22])[H:17])([H:15])[H:16]

>  <mol_properties>  (3) 
{"1": {"label": "*0", "atom_type": "Cs"}, "2": {"label": "*1", "atom_type": "Cs"}, "6": {"label": "*2", "atom_type": "H0"}, "9": {"label": "*3", "atom_type": "Cs"}, "10": {"label": "*4", "atom_type": "Cs"}}

>  <level_of_theory>  (3) 
wb97xd/def2tzvp

>  <lot_method>  (3) 
wb97xd

>  <lot_basis>  (3) 
def2tzvp

>  <spin_multiplicity>  (3) 
2.0

>  <optical_isomers>  (3) 
2.0

>  <modes>  (3) 
IdealGasTranslation(mass=(115.112, 'amu')),         NonlinearRotor(             inertia = ([202.273, 501.189, 561.826

>  <frequency_value>  (3) 
-1728.88

>  <frequency_units>  (3) 
cm^-1

>  <frequency_list>  (3) 
unknown

>  <arkane_path>  (3) 
/home/calvin/Dropbox/PersonalFolders/Calvin/HAb_Converged/rxn_16/output/rxns/TS0/arkane/output.py

>  <path_exists>  (3) 
True

>  <E0_value>  (3) 
-920795.0

>  <E0_units>  (3) 
kJ/mol

>  <thermo_class>  (3) 
unknown

>  <Cp0_value>  (3) 
unknown

>  <Cp0_units>  (3) 
unknown

>  <CpInf_value>  (3) 
unknown

>  <CpInf_units>  (3) 
unknown

>  <Tmin_value>  (3) 
unknown

>  <Tmin_units>  (3) 
unknown

>  <Tmax_value>  (3) 
unknown

>  <Tmax_units>  (3) 
unknown

>  <polynomials>  (3) 
unknown

>  <H298_value>  (3) 
unknown

>  <H298_units>  (3) 
unknown

>  <S298_value>  (3) 
unknown

>  <S298_units>  (3) 
unknown

>  <Cp_T_value_list>  (3) 
unknown

>  <Cp_T_units>  (3) 
unknown

>  <T_list>  (3) 
unknown

>  <T_units>  (3) 
unknown

>  <yaml_path>  (3) 
unknown

>  <frequencies_cm1>  (3) 
unknown

>  <ZPE_kJmol>  (3) 
unknown

>  <E_elec_kJmol>  (3) 
unknown

>  <E0_minus_Eelec_plus_ZPE_kJmol>  (3) 
unknown

>  <rxn>  (3) 
unknown

>  <species_type>  (3) 
unknown

>  <species_folder>  (3) 
unknown

>  <frequencies_cm1_list>  (3) 
[]

>  <ts_imag_freq_cm1>  (3) 
-1749.8728

>  <ts_freq_out_path>  (3) 
/home/calvin/Dropbox/PersonalFolders/Calvin/HAb_Converged/rxn_16/output/rxns/TS0/geometry/freq.out

>  <E0_kJmol>  (3) 
-920795

>  <H298_kJmol>  (3) 
unknown

$$$$

     RDKit          3D

  8  7  0  0  0  0  0  0  0  0999 V2000
   -1.2262   -0.1032    0.0429 C   0  0  0  0  0  0  0  0  0  1  0  0
    0.0344    0.4295    0.2005 C   0  0  0  0  0  0  0  0  0  2  0  0
    1.2024   -0.1933   -0.1813 C   0  0  0  0  0  3  0  0  0  3  0  0
   -2.1090    0.4329    0.3624 H   0  0  0  0  0  0  0  0  0  4  0  0
   -1.3659   -1.0784   -0.4078 H   0  0  0  0  0  0  0  0  0  5  0  0
    0.1132    1.4113    0.6589 H   0  0  0  0  0  0  0  0  0  6  0  0
    2.1658    0.2743   -0.0323 H   0  0  0  0  0  0  0  0  0  7  0  0
    1.1853   -1.1731   -0.6434 H   0  0  0  0  0  0  0  0  0  8  0  0
  1  5  1  0
  1  4  1  0
  1  2  1  0
  2  6  1  0
  2  3  1  0
  3  8  1  0
  3  7  1  0
M  RAD  1   3   2
M  END
>  <rmg_smiles>  (4) 
[CH2][CH][CH2]

>  <rmg_adjacency_list>  (4) 
multiplicity 2
1 C u0 p0 c0 {2,S} {3,S} {4,S}
2 C u1 p0 c0 {1,S} {7,S} {8,S}
3 C u0 p0 c0 {1,S} {5,S} {6,S}
4 H u0 p0 c0 {1,S}
5 H u0 p0 c0 {3,S}
6 H u0 p0 c0 {3,S}
7 H u0 p0 c0 {2,S}
8 H u0 p0 c0 {2,S}


>  <multiplicity>  (4) 
2

>  <reaction>  (4) 
rxn_16

>  <type>  (4) 
r1

>  <role_mapnums>  (4) 
{}

>  <role_mapidx>  (4) 
{}

>  <ordered_mapped_smiles>  (4) 
[CH:1]([CH:2]([C:3]([H:7])[H:8])[H:6])([H:4])[H:5]

>  <level_of_theory>  (4) 
wb97xd/def2tzvp

>  <lot_method>  (4) 
wb97xd

>  <lot_basis>  (4) 
def2tzvp

>  <spin_multiplicity>  (4) 
2.0

>  <optical_isomers>  (4) 
1.0

>  <modes>  (4) 
IdealGasTranslation(mass=(41.0391, 'amu')),         NonlinearRotor(             inertia = ([9.18678, 48.3525, 57.5393

>  <frequency_value>  (4) 
unknown

>  <frequency_units>  (4) 
unknown

>  <frequency_list>  (4) 
unknown

>  <arkane_path>  (4) 
/home/calvin/Dropbox/PersonalFolders/Calvin/HAb_Converged/rxn_16/output/Species/rxn_16_[CH2]C=C/arkane/output.py

>  <path_exists>  (4) 
True

>  <E0_value>  (4) 
-307695.8239419476

>  <E0_units>  (4) 
kJ/mol

>  <thermo_class>  (4) 
NASA

>  <Cp0_value>  (4) 
33.257888

>  <Cp0_units>  (4) 
J/(mol*K)

>  <CpInf_value>  (4) 
182.918384

>  <CpInf_units>  (4) 
J/(mol*K)

>  <Tmin_value>  (4) 
10.0

>  <Tmin_units>  (4) 
K

>  <Tmax_value>  (4) 
3000.0

>  <Tmax_units>  (4) 
K

>  <polynomials>  (4) 
[{"name": "polynomial1", "class": "NASAPolynomial", "Tmin_value": 10.0, "Tmin_units": "K", "Tmax_value": 532.7267436952769, "Tmax_units": "K", "coeffs": [4.120476242700736, -0.01110500746607337, 0.00013118962632593044, -2.295122998736072e-07, 1.327617546042694e-10, -37007258.9235638, 6.732627685136077]}, {"name": "polynomial2", "class": "NASAPolynomial", "Tmin_value": 532.7267436952769, "Tmin_units": "K", "Tmax_value": 3000.0, "Tmax_units": "K", "coeffs": [0.911699466954835, 0.027118425571894478, -1.6222639840263127e-05, 4.752540164453407e-09, -5.404199600895895e-13, -37007117.54936121, 18.310519838179516]}]

>  <H298_value>  (4) 
-73538.08078140329

>  <H298_units>  (4) 
kcal/mol

>  <S298_value>  (4) 
61.52456331648896

>  <S298_units>  (4) 
cal/(mol*K)

>  <Cp_T_value_list>  (4) 
[14.853530963099974, 18.637467651362382, 21.80750730434748, 24.44088072021761, 28.68710434193412, 31.834263999492475, 36.54938793194129, 39.012029638884556, 40.38558701326713]

>  <Cp_T_units>  (4) 
cal/(mol*K)

>  <T_list>  (4) 
[300.0, 400.0, 500.0, 600.0, 800.0, 1000.0, 1500.0, 2000.0, 2400.0]

>  <T_units>  (4) 
K

>  <yaml_path>  (4) 
/home/calvin/Dropbox/PersonalFolders/Calvin/HAb_Converged/rxn_16/output/Species/rxn_16_[CH2]C=C/rxn_16_CH2C=C.yml

>  <frequencies_cm1>  (4) 
[432.19432207015996, 530.70122648556, 552.78545127468, 794.8604177753199, 818.87426543936, 934.1091460942799, 1008.91808417036, 1035.1568350780801, 1186.33351689788, 1269.2386306662397, 1410.5886564931197, 1500.8483115392, 1510.5101598844399, 3121.9787379435197, 3123.6542823616, 3129.68349547256, 3223.1843675896794, 3225.69081723148]

>  <ZPE_kJmol>  (4) 
172.31799451557927

>  <E_elec_kJmol>  (4) 
-307868.1419364632

>  <E0_minus_Eelec_plus_ZPE_kJmol>  (4) 
0.0

>  <rxn>  (4) 
rxn_16

>  <species_type>  (4) 
p0

>  <species_folder>  (4) 
rxn_16_[CH2]C=C

>  <frequencies_cm1_list>  (4) 
[432.19432207015996, 530.70122648556, 552.78545127468, 794.8604177753199, 818.87426543936, 934.1091460942799, 1008.91808417036, 1035.1568350780801, 1186.33351689788, 1269.2386306662397, 1410.5886564931197, 1500.8483115392, 1510.5101598844399, 3121.9787379435197, 3123.6542823616, 3129.68349547256, 3223.1843675896794, 3225.69081723148]

>  <E0_kJmol>  (4) 
-307696

>  <H298_kJmol>  (4) 
-307683

$$$$

     RDKit          3D

 14 13  0  0  0  0  0  0  0  0999 V2000
    0.2521    0.4906   -1.4015 C   0  0  0  0  0  3  0  0  0  1  0  0
   -0.0866    0.3929    0.0443 C   0  0  0  0  0  0  0  0  0  2  0  0
    0.6293   -0.7656    0.7333 C   0  0  0  0  0  0  0  0  0  3  0  0
    0.1728    1.7296    0.7547 C   0  0  0  0  0  0  0  0  0  4  0  0
    1.5347    2.0949    0.7702 O   0  0  0  0  0  0  0  0  0  5  0  0
    0.7767   -0.3051   -1.9138 H   0  0  0  0  0  0  0  0  0  6  0  0
   -0.1241    1.3153   -1.9956 H   0  0  0  0  0  0  0  0  0  7  0  0
   -1.1732    0.2277    0.1303 H   0  0  0  0  0  0  0  0  0  8  0  0
    1.7087   -0.6089    0.7251 H   0  0  0  0  0  0  0  0  0  9  0  0
    0.3122   -0.8555    1.7736 H   0  0  0  0  0  0  0  0  0 10  0  0
    0.4148   -1.7097    0.2299 H   0  0  0  0  0  0  0  0  0 11  0  0
   -0.4359    2.5125    0.2826 H   0  0  0  0  0  0  0  0  0 12  0  0
   -0.1321    1.6566    1.8001 H   0  0  0  0  0  0  0  0  0 13  0  0
    1.8520    2.0832   -0.1363 H   0  0  0  0  0  0  0  0  0 14  0  0
  1  7  1  0
  1  6  1  0
  1  2  1  0
  2  8  1  0
  2  3  1  0
  2  4  1  0
  3 11  1  0
  3  9  1  0
  3 10  1  0
  4 13  1  0
  4 12  1  0
  4  5  1  0
  5 14  1  0
M  RAD  1   1   2
M  END
>  <rmg_smiles>  (5) 
[CH2]C(C)CO

>  <rmg_adjacency_list>  (5) 
multiplicity 2
1  O u0 p2 c0 {3,S} {14,S}
2  C u0 p0 c0 {3,S} {4,S} {5,S} {6,S}
3  C u0 p0 c0 {1,S} {2,S} {7,S} {8,S}
4  C u0 p0 c0 {2,S} {9,S} {10,S} {11,S}
5  C u1 p0 c0 {2,S} {12,S} {13,S}
6  H u0 p0 c0 {2,S}
7  H u0 p0 c0 {3,S}
8  H u0 p0 c0 {3,S}
9  H u0 p0 c0 {4,S}
10 H u0 p0 c0 {4,S}
11 H u0 p0 c0 {4,S}
12 H u0 p0 c0 {5,S}
13 H u0 p0 c0 {5,S}
14 H u0 p0 c0 {1,S}


>  <multiplicity>  (5) 
2

>  <reaction>  (5) 
rxn_16

>  <type>  (5) 
r2

>  <role_mapnums>  (5) 
{}

>  <role_mapidx>  (5) 
{}

>  <ordered_mapped_smiles>  (5) 
[C:1]([C:2]([C:3]([H:9])([H:10])[H:11])([C:4]([O:5][H:14])([H:12])[H:13])[H:8])([H:6])[H:7]

>  <level_of_theory>  (5) 
wb97xd/def2tzvp

>  <lot_method>  (5) 
wb97xd

>  <lot_basis>  (5) 
def2tzvp

>  <spin_multiplicity>  (5) 
2.0

>  <optical_isomers>  (5) 
2.0

>  <modes>  (5) 
IdealGasTranslation(mass=(73.0653, 'amu')),         NonlinearRotor(             inertia = ([77.4328, 123.422, 154.176

>  <frequency_value>  (5) 
unknown

>  <frequency_units>  (5) 
unknown

>  <frequency_list>  (5) 
unknown

>  <arkane_path>  (5) 
/home/calvin/Dropbox/PersonalFolders/Calvin/HAb_Converged/rxn_16/output/Species/rxn_16_[CH2]C[C]CO/arkane/output.py

>  <path_exists>  (5) 
True

>  <E0_value>  (5) 
-611469.822104018

>  <E0_units>  (5) 
kJ/mol

>  <thermo_class>  (5) 
NASA

>  <Cp0_value>  (5) 
33.257888

>  <Cp0_units>  (5) 
J/(mol*K)

>  <CpInf_value>  (5) 
332.57888

>  <CpInf_units>  (5) 
J/(mol*K)

>  <Tmin_value>  (5) 
10.0

>  <Tmin_units>  (5) 
K

>  <Tmax_value>  (5) 
3000.0

>  <Tmax_units>  (5) 
K

>  <polynomials>  (5) 
[{"name": "polynomial1", "class": "NASAPolynomial", "Tmin_value": 10.0, "Tmin_units": "K", "Tmax_value": 357.8724304583497, "Tmax_units": "K", "coeffs": [3.7092516711332055, 0.02299189102811797, 7.654881611947227e-05, -1.8529699550914793e-07, 1.338105839816946e-10, -73542827.77198984, 11.175169042673987]}, {"name": "polynomial2", "class": "NASAPolynomial", "Tmin_value": 357.8724304583497, "Tmin_units": "K", "Tmax_value": 3000.0, "Tmax_units": "K", "coeffs": [1.501473258809602, 0.04766867906590622, -2.6882737142939304e-05, 7.3822533061387125e-09, -7.903613511403545e-13, -73542669.75189386, 19.557750489712845]}]

>  <H298_value>  (5) 
-146139.8192828427

>  <H298_units>  (5) 
kcal/mol

>  <S298_value>  (5) 
81.84687120800446

>  <S298_units>  (5) 
cal/(mol*K)

>  <Cp_T_value_list>  (5) 
[26.980420468709603, 33.22596929702968, 38.727698902575106, 43.55366690199588, 51.44370182567033, 57.389146885304704, 66.43675245640046, 70.9832698805202, 73.31145392027264]

>  <Cp_T_units>  (5) 
cal/(mol*K)

>  <T_list>  (5) 
[300.0, 400.0, 500.0, 600.0, 800.0, 1000.0, 1500.0, 2000.0, 2400.0]

>  <T_units>  (5) 
K

>  <yaml_path>  (5) 
/home/calvin/Dropbox/PersonalFolders/Calvin/HAb_Converged/rxn_16/output/Species/rxn_16_[CH2]C[C]CO/rxn_16_CH2CCCO.yml

>  <frequencies_cm1>  (5) 
[131.28989233308, 153.01703388556, 222.99848128168, 252.38231146596, 320.9972287834, 380.56145944908, 386.3022591766, 503.62470336879994, 649.06058546108, 800.175464413, 917.51850956116, 937.00701389932, 960.3822319285998, 1003.68544135652, 1079.36648656824, 1145.50928917048, 1168.87077322912, 1211.8787022882798, 1288.58292831268, 1327.6904097100798, 1370.6502698719999, 1400.25384358652, 1411.8933837039199, 1451.69443061864, 1481.895432056, 1487.12120788452, 1500.73843977408, 2921.56577137932, 2968.0415280250795, 3019.31730740952, 3065.80679802592, 3092.203489596, 3099.2146816077197, 3113.5186120292797, 3218.13026639416, 3806.3630958906797]

>  <ZPE_kJmol>  (5) 
318.501693967692

>  <E_elec_kJmol>  (5) 
-611788.3237979857

>  <E0_minus_Eelec_plus_ZPE_kJmol>  (5) 
0.0

>  <rxn>  (5) 
rxn_16

>  <species_type>  (5) 
r1

>  <species_folder>  (5) 
rxn_16_[CH2]C[C]CO

>  <frequencies_cm1_list>  (5) 
[131.28989233308, 153.01703388556, 222.99848128168, 252.38231146596, 320.9972287834, 380.56145944908, 386.3022591766, 503.62470336879994, 649.06058546108, 800.175464413, 917.51850956116, 937.00701389932, 960.3822319285998, 1003.68544135652, 1079.36648656824, 1145.50928917048, 1168.87077322912, 1211.8787022882798, 1288.58292831268, 1327.6904097100798, 1370.6502698719999, 1400.25384358652, 1411.8933837039199, 1451.69443061864, 1481.895432056, 1487.12120788452, 1500.73843977408, 2921.56577137932, 2968.0415280250795, 3019.31730740952, 3065.80679802592, 3092.203489596, 3099.2146816077197, 3113.5186120292797, 3218.13026639416, 3806.3630958906797]

>  <E0_kJmol>  (5) 
-611470

>  <H298_kJmol>  (5) 
-611449

$$$$
