
     RDKit          3D

 15 15  0  0  0  0  0  0  0  0999 V2000
    0.9179   -0.1332   -0.1950 C   0  0  0  0  0  0  0  0  0  1  0  0
    0.1230   -1.1863    0.2585 C   0  0  0  0  0  0  0  0  0  2  0  0
    0.3245    1.1179   -0.3664 C   0  0  0  0  0  0  0  0  0  3  0  0
   -1.2224   -0.9972    0.5256 C   0  0  0  0  0  0  0  0  0  4  0  0
   -1.7997    0.2517    0.3477 C   0  0  0  0  0  0  0  0  0  5  0  0
   -1.0206    1.3089   -0.0998 C   0  0  0  0  0  0  0  0  0  6  0  0
    2.3596   -0.3264   -0.4425 C   0  0  0  0  0  0  0  0  0  7  0  0
    0.5677   -2.1647    0.3993 H   0  0  0  0  0  0  0  0  0  8  0  0
   -1.8238   -1.8280    0.8729 H   0  0  0  0  0  0  0  0  0  9  0  0
   -2.8517    0.4000    0.5551 H   0  0  0  0  0  0  0  0  0 10  0  0
   -1.4639    2.2864   -0.2429 H   0  0  0  0  0  0  0  0  0 11  0  0
    0.9275    1.9480   -0.7161 H   0  0  0  0  0  0  0  0  0 12  0  0
    2.6479   -1.3499   -0.6729 H   0  0  0  0  0  0  0  0  0 13  0  0
    2.7993    0.3811   -1.1424 H   0  0  0  0  0  0  0  0  0 14  0  0
    2.9013   -0.1239    0.4791 H   0  0  0  0  0  0  0  0  0 15  0  0
  1  3  1  0
  1  7  1  0
  1  2  1  0
  2  8  1  0
  2  4  1  0
  3  6  1  0
  3 12  1  0
  4  5  1  0
  4  9  1  0
  5  6  1  0
  5 10  1  0
  6 11  1  0
  7 13  1  0
  7 14  1  0
  7 15  1  0
M  END
>  <rmg_smiles>  (1) 
CC1[CH][CH][CH][CH][CH]1

>  <rmg_adjacency_list>  (1) 
1  C u0 p0 c0 {2,S} {8,S} {9,S} {10,S}
2  C u0 p0 c0 {1,S} {3,S} {4,S}
3  C u0 p0 c0 {2,S} {5,S} {11,S}
4  C u0 p0 c0 {2,S} {7,S} {15,S}
5  C u0 p0 c0 {3,S} {6,S} {12,S}
6  C u0 p0 c0 {5,S} {7,S} {13,S}
7  C u0 p0 c0 {4,S} {6,S} {14,S}
8  H u0 p0 c0 {1,S}
9  H u0 p0 c0 {1,S}
10 H u0 p0 c0 {1,S}
11 H u0 p0 c0 {3,S}
12 H u0 p0 c0 {5,S}
13 H u0 p0 c0 {6,S}
14 H u0 p0 c0 {7,S}
15 H u0 p0 c0 {4,S}


>  <multiplicity>  (1) 
1

>  <reaction>  (1) 
rxn_1433

>  <type>  (1) 
r1h

>  <role_mapnums>  (1) 
{"r1h_a": 7, "r1h_h": 15}

>  <role_mapidx>  (1) 
{"r1h_a": 6, "r1h_h": 14}

>  <ordered_mapped_smiles>  (1) 
[CH:1]1([C:7]([H:13])([H:14])[H:15])[CH:2]([H:8])[CH:4]([H:9])[CH:5]([H:10])[CH:6]([H:11])[CH:3]1[H:12]

>  <mol_properties>  (1) 
{"6": {"label": "donator", "atom_type": "Cs"}, "14": {"label": "d_hydrogen", "atom_type": "H0"}}

>  <level_of_theory>  (1) 
wb97xd/def2tzvp

>  <lot_method>  (1) 
wb97xd

>  <lot_basis>  (1) 
def2tzvp

>  <spin_multiplicity>  (1) 
1.0

>  <optical_isomers>  (1) 
1.0

>  <modes>  (1) 
IdealGasTranslation(mass=(92.0626, 'amu')),         NonlinearRotor(             inertia = ([90.1823, 198.896, 285.945

>  <frequency_value>  (1) 
unknown

>  <frequency_units>  (1) 
unknown

>  <frequency_list>  (1) 
unknown

>  <arkane_path>  (1) 
/home/calvin/Dropbox/PersonalFolders/Calvin/HAb_Converged/rxn_1433/output/Species/rxn_1433_Cc1ccccc1/arkane/output.py

>  <path_exists>  (1) 
True

>  <E0_value>  (1) 
-712667.4186954657

>  <E0_units>  (1) 
kJ/mol

>  <thermo_class>  (1) 
NASA

>  <Cp0_value>  (1) 
33.257888

>  <Cp0_units>  (1) 
J/(mol*K)

>  <CpInf_value>  (1) 
357.522296

>  <CpInf_units>  (1) 
J/(mol*K)

>  <Tmin_value>  (1) 
10.0

>  <Tmin_units>  (1) 
K

>  <Tmax_value>  (1) 
3000.0

>  <Tmax_units>  (1) 
K

>  <polynomials>  (1) 
[{"name": "polynomial1", "class": "NASAPolynomial", "Tmin_value": 10.0, "Tmin_units": "K", "Tmax_value": 551.6404107050422, "Tmax_units": "K", "coeffs": [3.9807877443631, 0.00035561988080208296, 0.00017407945539970812, -2.980514466570864e-07, 1.625970399361135e-10, -85714089.32981402, 11.957872909957874]}, {"name": "polynomial2", "class": "NASAPolynomial", "Tmin_value": 551.6404107050422, "Tmin_units": "K", "Tmax_value": 3000.0, "Tmax_units": "K", "coeffs": [-2.4640727136101863, 0.06292197006651765, -3.910390273638268e-05, 1.1617229825521433e-08, -1.3239176957032157e-12, -85713619.20098881, 37.03314537917204]}]

>  <H298_value>  (1) 
-170327.1711088113

>  <H298_units>  (1) 
kcal/mol

>  <S298_value>  (1) 
79.81344471114225

>  <S298_units>  (1) 
cal/(mol*K)

>  <Cp_T_value_list>  (1) 
[25.881917309628086, 33.90758568479932, 40.90534559010948, 46.79761268221675, 56.14404960423432, 62.889733704082204, 72.41563025517803, 76.9434671339039, 79.45318395865998]

>  <Cp_T_units>  (1) 
cal/(mol*K)

>  <T_list>  (1) 
[300.0, 400.0, 500.0, 600.0, 800.0, 1000.0, 1500.0, 2000.0, 2400.0]

>  <T_units>  (1) 
K

>  <yaml_path>  (1) 
/home/calvin/Dropbox/PersonalFolders/Calvin/HAb_Converged/rxn_1433/output/Species/rxn_1433_Cc1ccccc1/rxn_1433_Cc1ccccc1.yml

>  <frequencies_cm1>  (1) 
[32.67311615255999, 208.88682644908, 346.6454189536, 414.1066827372799, 475.62800421915995, 527.95443235756, 633.69913930024, 711.73556047672, 745.6928028841199, 800.1617304423601, 861.8684605278798, 915.5202168330399, 979.4449831769199, 991.60641417864, 997.6768292015198, 1015.82627140228, 1052.7363174972797, 1058.5389200926797, 1109.8078324918, 1173.8974064833599, 1201.1112693065197, 1232.0058362611999, 1316.04400260736, 1349.7815014845198, 1404.03755249784, 1462.1391152903598, 1476.8481978457999, 1495.6225357106798, 1530.4999541509599, 1640.12450779944, 1663.1975784746398, 3015.0391755551595, 3079.01201079628, 3101.631860440359, 3145.0655425893597, 3146.5282104625194, 3159.5205466879593, 3168.9008486350795, 3181.02107772488]

>  <ZPE_kJmol>  (1) 
333.8912309447283

>  <E_elec_kJmol>  (1) 
-713001.3099264104

>  <E0_minus_Eelec_plus_ZPE_kJmol>  (1) 
0.0

>  <rxn>  (1) 
rxn_1433

>  <species_type>  (1) 
r1

>  <species_folder>  (1) 
rxn_1433_Cc1ccccc1

>  <frequencies_cm1_list>  (1) 
[32.67311615255999, 208.88682644908, 346.6454189536, 414.1066827372799, 475.62800421915995, 527.95443235756, 633.69913930024, 711.73556047672, 745.6928028841199, 800.1617304423601, 861.8684605278798, 915.5202168330399, 979.4449831769199, 991.60641417864, 997.6768292015198, 1015.82627140228, 1052.7363174972797, 1058.5389200926797, 1109.8078324918, 1173.8974064833599, 1201.1112693065197, 1232.0058362611999, 1316.04400260736, 1349.7815014845198, 1404.03755249784, 1462.1391152903598, 1476.8481978457999, 1495.6225357106798, 1530.4999541509599, 1640.12450779944, 1663.1975784746398, 3015.0391755551595, 3079.01201079628, 3101.631860440359, 3145.0655425893597, 3146.5282104625194, 3159.5205466879593, 3168.9008486350795, 3181.02107772488]

>  <E0_kJmol>  (1) 
-712667

>  <H298_kJmol>  (1) 
-712649

$$$$

     RDKit          3D

  2  1  0  0  0  0  0  0  0  0999 V2000
    0.2760    0.0933    0.4331 H   0  0  0  0  0  0  0  0  0  1  0  0
   -0.1153   -0.0390   -0.1809 H   0  0  0  0  0  0  0  0  0  2  0  0
  1  2  1  0
M  END
>  <rmg_smiles>  (2) 
[H][H]

>  <rmg_adjacency_list>  (2) 
1 H u0 p0 c0 {2,S}
2 H u0 p0 c0 {1,S}


>  <multiplicity>  (2) 
1

>  <reaction>  (2) 
rxn_1433

>  <type>  (2) 
r2h

>  <role_mapnums>  (2) 
{"r2h_a": 1, "r2h_h": 2}

>  <role_mapidx>  (2) 
{"r2h_a": 0, "r2h_h": 1}

>  <ordered_mapped_smiles>  (2) 
[H:1][H:2]

>  <mol_properties>  (2) 
{"0": {"label": "acceptor", "atom_type": "H0"}, "1": {"label": "a_hydrogen", "atom_type": "H0"}}

>  <level_of_theory>  (2) 
wb97xd/def2tzvp

>  <lot_method>  (2) 
wb97xd

>  <lot_basis>  (2) 
def2tzvp

>  <spin_multiplicity>  (2) 
1.0

>  <optical_isomers>  (2) 
1.0

>  <modes>  (2) 
IdealGasTranslation(mass=(2.01565, 'amu')),         LinearRotor(inertia=(0.279051, 'amu*angstrom^2'), symmetry=2),         HarmonicOscillator(frequencies=([4384.98

>  <frequency_value>  (2) 
unknown

>  <frequency_units>  (2) 
unknown

>  <frequency_list>  (2) 
unknown

>  <arkane_path>  (2) 
/home/calvin/Dropbox/PersonalFolders/Calvin/HAb_Converged/rxn_1433/output/Species/rxn_1433_[H][H]/arkane/output.py

>  <path_exists>  (2) 
True

>  <E0_value>  (2) 
-3062.16965545063

>  <E0_units>  (2) 
kJ/mol

>  <thermo_class>  (2) 
NASA

>  <Cp0_value>  (2) 
29.100652

>  <Cp0_units>  (2) 
J/(mol*K)

>  <CpInf_value>  (2) 
37.415124

>  <CpInf_units>  (2) 
J/(mol*K)

>  <Tmin_value>  (2) 
10.0

>  <Tmin_units>  (2) 
K

>  <Tmax_value>  (2) 
3000.0

>  <Tmax_units>  (2) 
K

>  <polynomials>  (2) 
[{"name": "polynomial1", "class": "NASAPolynomial", "Tmin_value": 10.0, "Tmin_units": "K", "Tmax_value": 609.8839760798177, "Tmax_units": "K", "coeffs": [3.498630427760662, 8.118128927195725e-05, -2.559636751505851e-07, 1.12469612407288e-11, 3.0815171130046294e-13, -368293.8823611774, -4.277290681887199]}, {"name": "polynomial2", "class": "NASAPolynomial", "Tmin_value": 609.8839760798177, "Tmin_units": "K", "Tmax_value": 3000.0, "Tmax_units": "K", "coeffs": [3.686867766797846, -0.0007828622299568348, 9.578139376048542e-07, -3.193665739780837e-10, 3.533006631714403e-14, -368323.7341208647, -5.148841965058497]}]

>  <H298_value>  (2) 
-729.8011438890577

>  <H298_units>  (2) 
kcal/mol

>  <S298_value>  (2) 
31.136082854374543

>  <S298_units>  (2) 
cal/(mol*K)

>  <Cp_T_value_list>  (2) 
[6.960683160805141, 6.952753142081975, 6.947066275630451, 6.950370161364484, 7.003977696739648, 7.10979357060473, 7.489089863592967, 7.874797646413975, 8.112273708870758]

>  <Cp_T_units>  (2) 
cal/(mol*K)

>  <T_list>  (2) 
[300.0, 400.0, 500.0, 600.0, 800.0, 1000.0, 1500.0, 2000.0, 2400.0]

>  <T_units>  (2) 
K

>  <yaml_path>  (2) 
/home/calvin/Dropbox/PersonalFolders/Calvin/HAb_Converged/rxn_1433/output/Species/rxn_1433_[H][H]/rxn_1433_HH.yml

>  <frequencies_cm1>  (2) 
[4384.97527895388]

>  <ZPE_kJmol>  (2) 
26.22798418526521

>  <E_elec_kJmol>  (2) 
-3088.3976396358958

>  <E0_minus_Eelec_plus_ZPE_kJmol>  (2) 
0.0

>  <rxn>  (2) 
rxn_1433

>  <species_type>  (2) 
p0

>  <species_folder>  (2) 
rxn_1433_[H][H]

>  <frequencies_cm1_list>  (2) 
[4384.97527895388]

>  <E0_kJmol>  (2) 
-3062.17

>  <H298_kJmol>  (2) 
-3053.49

$$$$

     RDKit          3D

 16 15  0  0  0  0  0  0  0  0999 V2000
    0.4806   -0.1148   -0.2683 C   0  0  0  0  0  0  0  0  0  1  0  0
   -0.3143   -1.1679    0.1853 C   0  0  0  0  0  0  0  0  0  2  0  0
   -0.1127    1.1363   -0.4396 C   0  0  0  0  0  0  0  0  0  3  0  0
   -1.6596   -0.9788    0.4524 C   0  0  0  0  0  0  0  0  0  4  0  0
   -2.2370    0.2701    0.2745 C   0  0  0  0  0  0  0  0  0  5  0  0
   -1.4579    1.3273   -0.1730 C   0  0  0  0  0  0  0  0  0  6  0  0
    1.9224   -0.3080   -0.5157 C   0  0  0  0  0  0  0  0  0  7  0  0
    0.1305   -2.1463    0.3261 H   0  0  0  0  0  0  0  0  0  8  0  0
   -2.2611   -1.8096    0.7997 H   0  0  0  0  0  0  0  0  0  9  0  0
   -3.2890    0.4184    0.4819 H   0  0  0  0  0  0  0  0  0 10  0  0
   -1.9012    2.3048   -0.3161 H   0  0  0  0  0  0  0  0  0 11  0  0
    0.4902    1.9664   -0.7893 H   0  0  0  0  0  0  0  0  0 12  0  0
    2.2106   -1.3315   -0.7462 H   0  0  0  0  0  0  0  0  0 13  0  0
    2.3620    0.3995   -1.2156 H   0  0  0  0  0  0  0  0  0 14  0  0
    3.0943    0.1104    1.4050 H   0  0  0  0  0 15  0  0  0 15  0  0
    2.5423   -0.0762    0.5388 H   0  0  0  0  0  0  0  0  0 16  0  0
  1  3  1  0
  1  7  1  0
  1  2  1  0
  2  8  1  0
  2  4  1  0
  3  6  1  0
  3 12  1  0
  4  5  1  0
  4  9  1  0
  5  6  1  0
  5 10  1  0
  6 11  1  0
  7 13  1  0
  7 14  1  0
  7 16  1  0
M  END
>  <rmg_smiles>  (3) 
CC1[CH][CH][CH][CH][CH]1.[H]

>  <rmg_adjacency_list>  (3) 
multiplicity 2
1  C u0 p0 c0 {2,S} {8,S} {9,S} {10,S}
2  C u0 p0 c0 {1,S} {3,S} {4,S}
3  C u0 p0 c0 {2,S} {5,S} {11,S}
4  C u0 p0 c0 {2,S} {7,S} {15,S}
5  C u0 p0 c0 {3,S} {6,S} {12,S}
6  C u0 p0 c0 {5,S} {7,S} {13,S}
7  C u0 p0 c0 {4,S} {6,S} {14,S}
8  H u0 p0 c0 {1,S}
9  H u0 p0 c0 {1,S}
10 H u0 p0 c0 {1,S}
11 H u0 p0 c0 {3,S}
12 H u0 p0 c0 {5,S}
13 H u0 p0 c0 {6,S}
14 H u0 p0 c0 {7,S}
15 H u0 p0 c0 {4,S}
16 H u1 p0 c0


>  <multiplicity>  (3) 
2

>  <reaction>  (3) 
rxn_1433

>  <type>  (3) 
ts

>  <role_mapnums>  (3) 
{"*2": 16, "*1": 15, "*3": 7, "*0": null, "*4": 1}

>  <role_mapidx>  (3) 
{"*2": 15, "*1": 14, "*3": 6, "*4": 0}

>  <ordered_mapped_smiles>  (3) 
[CH:1]1([C:7]([H:13])([H:14])[H:16])[CH:2]([H:8])[CH:4]([H:9])[CH:5]([H:10])[CH:6]([H:11])[CH:3]1[H:12].[H:15]

>  <mol_properties>  (3) 
{"0": {"label": "*4", "atom_type": "Cs"}, "6": {"label": "*3", "atom_type": "Cs"}, "14": {"label": "*1", "atom_type": "H0"}, "15": {"label": "*2", "atom_type": "H0"}}

>  <level_of_theory>  (3) 
wb97xd/def2tzvp

>  <lot_method>  (3) 
wb97xd

>  <lot_basis>  (3) 
def2tzvp

>  <spin_multiplicity>  (3) 
2.0

>  <optical_isomers>  (3) 
1.0

>  <modes>  (3) 
IdealGasTranslation(mass=(93.0704, 'amu')),         NonlinearRotor(             inertia = ([95.2015, 212.117, 294.943

>  <frequency_value>  (3) 
-1354.67

>  <frequency_units>  (3) 
cm^-1

>  <frequency_list>  (3) 
unknown

>  <arkane_path>  (3) 
/home/calvin/Dropbox/PersonalFolders/Calvin/HAb_Converged/rxn_1433/output/rxns/TS0/arkane/output.py

>  <path_exists>  (3) 
True

>  <E0_value>  (3) 
-713960.0

>  <E0_units>  (3) 
kJ/mol

>  <thermo_class>  (3) 
unknown

>  <Cp0_value>  (3) 
unknown

>  <Cp0_units>  (3) 
unknown

>  <CpInf_value>  (3) 
unknown

>  <CpInf_units>  (3) 
unknown

>  <Tmin_value>  (3) 
unknown

>  <Tmin_units>  (3) 
unknown

>  <Tmax_value>  (3) 
unknown

>  <Tmax_units>  (3) 
unknown

>  <polynomials>  (3) 
unknown

>  <H298_value>  (3) 
unknown

>  <H298_units>  (3) 
unknown

>  <S298_value>  (3) 
unknown

>  <S298_units>  (3) 
unknown

>  <Cp_T_value_list>  (3) 
unknown

>  <Cp_T_units>  (3) 
unknown

>  <T_list>  (3) 
unknown

>  <T_units>  (3) 
unknown

>  <yaml_path>  (3) 
unknown

>  <frequencies_cm1>  (3) 
unknown

>  <ZPE_kJmol>  (3) 
unknown

>  <E_elec_kJmol>  (3) 
unknown

>  <E0_minus_Eelec_plus_ZPE_kJmol>  (3) 
unknown

>  <rxn>  (3) 
unknown

>  <species_type>  (3) 
unknown

>  <species_folder>  (3) 
unknown

>  <frequencies_cm1_list>  (3) 
[]

>  <ts_imag_freq_cm1>  (3) 
-1371.1225

>  <ts_freq_out_path>  (3) 
/home/calvin/Dropbox/PersonalFolders/Calvin/HAb_Converged/rxn_1433/output/rxns/TS0/geometry/freq.out

>  <E0_kJmol>  (3) 
-713960

>  <H298_kJmol>  (3) 
unknown

$$$$

     RDKit          3D

 14 14  0  0  0  0  0  0  0  0999 V2000
    2.3111    0.1295    0.0255 C   0  0  0  0  0  0  0  0  0  1  0  0
    0.9132    0.0511    0.0101 C   0  0  0  0  0  0  0  0  0  2  0  0
    0.2446   -1.1981    0.0389 C   0  0  0  0  0  3  0  0  0  3  0  0
   -1.1306   -1.2689    0.0235 C   0  0  0  0  0  0  0  0  0  4  0  0
   -1.8967   -0.1062   -0.0209 C   0  0  0  0  0  0  0  0  0  5  0  0
   -1.2644    1.1347   -0.0499 C   0  0  0  0  0  0  0  0  0  6  0  0
    0.1101    1.2180   -0.0350 C   0  0  0  0  0  0  0  0  0  7  0  0
    2.9188   -0.7647    0.0599 H   0  0  0  0  0  0  0  0  0  8  0  0
    2.8158    1.0859    0.0034 H   0  0  0  0  0  0  0  0  0  9  0  0
    0.8353   -2.1058    0.0735 H   0  0  0  0  0  0  0  0  0 10  0  0
   -1.6191   -2.2351    0.0461 H   0  0  0  0  0  0  0  0  0 11  0  0
   -2.9772   -0.1668   -0.0328 H   0  0  0  0  0  0  0  0  0 12  0  0
   -1.8572    2.0404   -0.0845 H   0  0  0  0  0  0  0  0  0 13  0  0
    0.5964    2.1860   -0.0577 H   0  0  0  0  0  0  0  0  0 14  0  0
  1  8  1  0
  1  9  1  0
  1  2  1  0
  2  7  1  0
  2  3  1  0
  3  4  1  0
  3 10  1  0
  4  5  1  0
  4 11  1  0
  5 12  1  0
  5  6  1  0
  6 13  1  0
  6  7  1  0
  7 14  1  0
M  RAD  1   3   2
M  END
>  <rmg_smiles>  (4) 
[CH2]C1[CH][CH][CH][CH][CH]1

>  <rmg_adjacency_list>  (4) 
multiplicity 2
1  C u0 p0 c0 {2,S} {3,S} {7,S}
2  C u1 p0 c0 {1,S} {4,S} {8,S}
3  C u0 p0 c0 {1,S} {6,S} {12,S}
4  C u0 p0 c0 {2,S} {5,S} {9,S}
5  C u0 p0 c0 {4,S} {6,S} {10,S}
6  C u0 p0 c0 {3,S} {5,S} {11,S}
7  C u0 p0 c0 {1,S} {13,S} {14,S}
8  H u0 p0 c0 {2,S}
9  H u0 p0 c0 {4,S}
10 H u0 p0 c0 {5,S}
11 H u0 p0 c0 {6,S}
12 H u0 p0 c0 {3,S}
13 H u0 p0 c0 {7,S}
14 H u0 p0 c0 {7,S}


>  <multiplicity>  (4) 
2

>  <reaction>  (4) 
rxn_1433

>  <type>  (4) 
r1

>  <role_mapnums>  (4) 
{}

>  <role_mapidx>  (4) 
{}

>  <ordered_mapped_smiles>  (4) 
[CH:1]([CH:2]1[C:3]([H:10])[CH:4]([H:11])[CH:5]([H:12])[CH:6]([H:13])[CH:7]1[H:14])([H:8])[H:9]

>  <level_of_theory>  (4) 
wb97xd/def2tzvp

>  <lot_method>  (4) 
wb97xd

>  <lot_basis>  (4) 
def2tzvp

>  <spin_multiplicity>  (4) 
2.0

>  <optical_isomers>  (4) 
1.0

>  <modes>  (4) 
IdealGasTranslation(mass=(91.0548, 'amu')),         NonlinearRotor(             inertia = ([90.2688, 184.999, 275.268

>  <frequency_value>  (4) 
unknown

>  <frequency_units>  (4) 
unknown

>  <frequency_list>  (4) 
unknown

>  <arkane_path>  (4) 
/home/calvin/Dropbox/PersonalFolders/Calvin/HAb_Converged/rxn_1433/output/Species/rxn_1433_[CH2]c1ccccc1/arkane/output.py

>  <path_exists>  (4) 
True

>  <E0_value>  (4) 
-710982.0623900568

>  <E0_units>  (4) 
kJ/mol

>  <thermo_class>  (4) 
NASA

>  <Cp0_value>  (4) 
33.257888

>  <Cp0_units>  (4) 
J/(mol*K)

>  <CpInf_value>  (4) 
332.57888

>  <CpInf_units>  (4) 
J/(mol*K)

>  <Tmin_value>  (4) 
10.0

>  <Tmin_units>  (4) 
K

>  <Tmax_value>  (4) 
3000.0

>  <Tmax_units>  (4) 
K

>  <polynomials>  (4) 
[{"name": "polynomial1", "class": "NASAPolynomial", "Tmin_value": 10.0, "Tmin_units": "K", "Tmax_value": 553.2109116327725, "Tmax_units": "K", "coeffs": [4.142543359170266, -0.014218763448623044, 0.0002576829967730386, -4.632974771235726e-07, 2.671038579104251e-10, -85511387.18347761, 10.487951999207327]}, {"name": "polynomial2", "class": "NASAPolynomial", "Tmin_value": 553.2109116327725, "Tmin_units": "K", "Tmax_value": 3000.0, "Tmax_units": "K", "coeffs": [-0.7942917364053798, 0.057999794075117024, -3.716274122111428e-05, 1.1355675181462914e-08, -1.3253487492588121e-12, -85511399.83577849, 26.331454017928447]}]

>  <H298_value>  (4) 
-169924.63454747986

>  <H298_units>  (4) 
kcal/mol

>  <S298_value>  (4) 
74.98251677136349

>  <S298_units>  (4) 
cal/(mol*K)

>  <Cp_T_value_list>  (4) 
[25.283016477228646, 33.52643449610302, 40.21254898412453, 45.52304279605987, 53.838654413345935, 59.76143508278511, 67.97251227799326, 71.92525612415508, 74.23565128362748]

>  <Cp_T_units>  (4) 
cal/(mol*K)

>  <T_list>  (4) 
[300.0, 400.0, 500.0, 600.0, 800.0, 1000.0, 1500.0, 2000.0, 2400.0]

>  <T_units>  (4) 
K

>  <yaml_path>  (4) 
/home/calvin/Dropbox/PersonalFolders/Calvin/HAb_Converged/rxn_1433/output/Species/rxn_1433_[CH2]c1ccccc1/rxn_1433_CH2c1ccccc1.yml

>  <frequencies_cm1>  (4) 
[200.24815891652, 361.60171298056, 390.17523889708, 478.87608827552, 500.34228438583995, 531.78621016612, 625.85017507948, 685.3594698625999, 711.2686054749599, 777.5487477835999, 833.0683240958, 836.50868374112, 906.74420959408, 969.6801300518798, 974.03379874476, 983.70251407532, 992.09397013636, 1038.3980521491198, 1114.7108600102797, 1165.8355657176799, 1178.3403459854, 1276.27729061924, 1315.886061945, 1345.4965026448397, 1472.9546171693598, 1482.97354875124, 1496.57704667016, 1589.63156474148, 1604.18957361988, 3131.52384753832, 3150.75140643432, 3153.26472306144, 3164.65705170732, 3171.3798303356, 3183.3901876602795, 3230.66251460316]

>  <ZPE_kJmol>  (4) 
299.2207520027369

>  <E_elec_kJmol>  (4) 
-711281.2831420596

>  <E0_minus_Eelec_plus_ZPE_kJmol>  (4) 
0.0

>  <rxn>  (4) 
rxn_1433

>  <species_type>  (4) 
p1

>  <species_folder>  (4) 
rxn_1433_[CH2]c1ccccc1

>  <frequencies_cm1_list>  (4) 
[200.24815891652, 361.60171298056, 390.17523889708, 478.87608827552, 500.34228438583995, 531.78621016612, 625.85017507948, 685.3594698625999, 711.2686054749599, 777.5487477835999, 833.0683240958, 836.50868374112, 906.74420959408, 969.6801300518798, 974.03379874476, 983.70251407532, 992.09397013636, 1038.3980521491198, 1114.7108600102797, 1165.8355657176799, 1178.3403459854, 1276.27729061924, 1315.886061945, 1345.4965026448397, 1472.9546171693598, 1482.97354875124, 1496.57704667016, 1589.63156474148, 1604.18957361988, 3131.52384753832, 3150.75140643432, 3153.26472306144, 3164.65705170732, 3171.3798303356, 3183.3901876602795, 3230.66251460316]

>  <E0_kJmol>  (4) 
-710982

>  <H298_kJmol>  (4) 
-710965

$$$$

     RDKit          3D

  1  0  0  0  0  0  0  0  0  0999 V2000
    0.0000    0.0000    0.0000 H   0  0  0  0  0 15  0  0  0  1  0  0
M  END
>  <rmg_smiles>  (5) 
[H]

>  <rmg_adjacency_list>  (5) 
multiplicity 2
1 H u1 p0 c0


>  <multiplicity>  (5) 
2

>  <reaction>  (5) 
rxn_1433

>  <type>  (5) 
r2

>  <role_mapnums>  (5) 
{}

>  <role_mapidx>  (5) 
{}

>  <ordered_mapped_smiles>  (5) 
[H:1]

>  <level_of_theory>  (5) 
wb97xd/def2tzvp

>  <lot_method>  (5) 
wb97xd

>  <lot_basis>  (5) 
def2tzvp

>  <spin_multiplicity>  (5) 
2.0

>  <optical_isomers>  (5) 
1.0

>  <modes>  (5) 
IdealGasTranslation(mass=(1.00797, 'amu')),

>  <frequency_value>  (5) 
unknown

>  <frequency_units>  (5) 
unknown

>  <frequency_list>  (5) 
unknown

>  <arkane_path>  (5) 
/home/calvin/Dropbox/PersonalFolders/Calvin/HAb_Converged/rxn_1433/output/Species/rxn_1433_[H]/arkane/output.py

>  <path_exists>  (5) 
True

>  <E0_value>  (5) 
-1319.7535890175566

>  <E0_units>  (5) 
kJ/mol

>  <thermo_class>  (5) 
NASA

>  <Cp0_value>  (5) 
20.78618

>  <Cp0_units>  (5) 
J/(mol*K)

>  <CpInf_value>  (5) 
20.78618

>  <CpInf_units>  (5) 
J/(mol*K)

>  <Tmin_value>  (5) 
10.0

>  <Tmin_units>  (5) 
K

>  <Tmax_value>  (5) 
3000.0

>  <Tmax_units>  (5) 
K

>  <polynomials>  (5) 
[{"name": "polynomial1", "class": "NASAPolynomial", "Tmin_value": 10.0, "Tmin_units": "K", "Tmax_value": 1853.5663026740365, "Tmax_units": "K", "coeffs": [2.500000000000126, -2.814048095438137e-15, 9.047587538332909e-18, -8.591944598242694e-21, 2.4182720553650057e-24, -158729.69562032758, -0.461069367474324]}, {"name": "polynomial2", "class": "NASAPolynomial", "Tmin_value": 1853.5663026740365, "Tmin_units": "K", "Tmax_value": 3000.0, "Tmax_units": "K", "coeffs": [2.500000000696122, -1.3129776766613561e-12, 9.140875080033424e-16, -2.782806647322001e-19, 3.1263265306749967e-23, -158729.69562061856, -0.4610693713504795]}]

>  <H298_value>  (5) 
-313.9482141882736

>  <H298_units>  (5) 
kcal/mol

>  <S298_value>  (5) 
27.387012987908147

>  <S298_units>  (5) 
cal/(mol*K)

>  <Cp_T_value_list>  (5) 
[4.968016252389826, 4.968016252389978, 4.968016252390173, 4.96801625239036, 4.968016252390567, 4.968016252390427, 4.968016252389077, 4.968016252391019, 4.968016252390868]

>  <Cp_T_units>  (5) 
cal/(mol*K)

>  <T_list>  (5) 
[300.0, 400.0, 500.0, 600.0, 800.0, 1000.0, 1500.0, 2000.0, 2400.0]

>  <T_units>  (5) 
K

>  <yaml_path>  (5) 
/home/calvin/Dropbox/PersonalFolders/Calvin/HAb_Converged/rxn_1433/output/Species/rxn_1433_[H]/rxn_1433_H.yml

>  <frequencies_cm1>  (5) 
[]

>  <ZPE_kJmol>  (5) 
unknown

>  <E_elec_kJmol>  (5) 
unknown

>  <E0_minus_Eelec_plus_ZPE_kJmol>  (5) 
unknown

>  <rxn>  (5) 
rxn_1433

>  <species_type>  (5) 
r0

>  <species_folder>  (5) 
rxn_1433_[H]

>  <frequencies_cm1_list>  (5) 
[]

>  <E0_kJmol>  (5) 
-1319.75

>  <H298_kJmol>  (5) 
-1313.56

$$$$
