
     RDKit          3D

 10  9  0  0  0  0  0  0  0  0999 V2000
    0.5658   -1.4918   -1.1575 C   0  0  0  0  0  0  0  0  0  1  0  0
    0.6578   -1.1875    0.3166 C   0  0  0  0  0  0  0  0  0  2  0  0
    0.2690    0.1169    0.8071 C   0  0  0  0  0  0  0  0  0  3  0  0
   -0.6731    1.2093    0.0488 S   0  0  0  0  0  0  0  0  0  4  0  0
    1.2624   -0.8701   -1.7243 H   0  0  0  0  0  0  0  0  0  5  0  0
    0.8059   -2.5388   -1.3466 H   0  0  0  0  0  0  0  0  0  6  0  0
   -0.4362   -1.2894   -1.5355 H   0  0  0  0  0  0  0  0  0  7  0  0
   -0.0997   -1.8301    0.7679 H   0  0  0  0  0  0  0  0  0  8  0  0
    1.5631   -1.5598    0.7987 H   0  0  0  0  0  0  0  0  0  9  0  0
    0.6069    0.3396    1.8204 H   0  0  0  0  0  0  0  0  0 10  0  0
  1  5  1  0
  1  7  1  0
  1  6  1  0
  1  2  1  0
  2  9  1  0
  2  8  1  0
  2  3  1  0
  3 10  1  0
  3  4  1  0
M  END
>  <rmg_smiles>  (1) 
CC[CH][S]

>  <rmg_adjacency_list>  (1) 
1  S u0 p2 c0 {4,S}
2  C u0 p0 c0 {3,S} {4,S} {5,S} {6,S}
3  C u0 p0 c0 {2,S} {7,S} {8,S} {9,S}
4  C u0 p0 c0 {1,S} {2,S} {10,S}
5  H u0 p0 c0 {2,S}
6  H u0 p0 c0 {2,S}
7  H u0 p0 c0 {3,S}
8  H u0 p0 c0 {3,S}
9  H u0 p0 c0 {3,S}
10 H u0 p0 c0 {4,S}


>  <multiplicity>  (1) 
1

>  <reaction>  (1) 
rxn_2018

>  <type>  (1) 
r1h

>  <role_mapnums>  (1) 
{"r1h_a": 2, "r1h_h": 8}

>  <role_mapidx>  (1) 
{"r1h_a": 1, "r1h_h": 7}

>  <ordered_mapped_smiles>  (1) 
[C:1]([C:2]([CH:3]([SH:4])[H:10])([H:8])[H:9])([H:5])([H:6])[H:7]

>  <mol_properties>  (1) 
{"1": {"label": "donator", "atom_type": "Cs"}, "7": {"label": "d_hydrogen", "atom_type": "H0"}}

>  <level_of_theory>  (1) 
wb97xd/def2tzvp

>  <lot_method>  (1) 
wb97xd

>  <lot_basis>  (1) 
def2tzvp

>  <spin_multiplicity>  (1) 
1.0

>  <optical_isomers>  (1) 
2.0

>  <modes>  (1) 
IdealGasTranslation(mass=(74.019, 'amu')),         NonlinearRotor(             inertia = ([22.4966, 186.361, 188.795

>  <frequency_value>  (1) 
unknown

>  <frequency_units>  (1) 
unknown

>  <frequency_list>  (1) 
unknown

>  <arkane_path>  (1) 
/home/calvin/Dropbox/PersonalFolders/Calvin/HAb_Converged/rxn_2018/output/Species/rxn_2018_CCC=S/arkane/output.py

>  <path_exists>  (1) 
True

>  <E0_value>  (1) 
-1354842.217301763

>  <E0_units>  (1) 
kJ/mol

>  <thermo_class>  (1) 
NASA

>  <Cp0_value>  (1) 
33.257888

>  <Cp0_units>  (1) 
J/(mol*K)

>  <CpInf_value>  (1) 
232.805216

>  <CpInf_units>  (1) 
J/(mol*K)

>  <Tmin_value>  (1) 
10.0

>  <Tmin_units>  (1) 
K

>  <Tmax_value>  (1) 
3000.0

>  <Tmax_units>  (1) 
K

>  <polynomials>  (1) 
[{"name": "polynomial1", "class": "NASAPolynomial", "Tmin_value": 10.0, "Tmin_units": "K", "Tmax_value": 1013.5613876204479, "Tmax_units": "K", "coeffs": [3.938264474030978, 0.013958577362371608, 2.4928299834323208e-05, -3.437968169284249e-08, 1.1996855715308475e-11, -162949884.83258396, 10.036718283867241]}, {"name": "polynomial2", "class": "NASAPolynomial", "Tmin_value": 1013.5613876204479, "Tmin_units": "K", "Tmax_value": 3000.0, "Tmax_units": "K", "coeffs": [3.4971174702987913, 0.02812100302113746, -1.4413974403757785e-05, 3.5888447591702137e-09, -3.50645414543858e-13, -162950433.43848506, 9.023464985603324]}]

>  <H298_value>  (1) 
-323811.1931375839

>  <H298_units>  (1) 
kcal/mol

>  <S298_value>  (1) 
74.44131966579386

>  <S298_units>  (1) 
cal/(mol*K)

>  <Cp_T_value_list>  (1) 
[18.95458725520134, 23.085463908908388, 27.029925960895593, 30.63553072981776, 36.506480449108224, 40.62310264010602, 46.867049640781964, 50.04512758032496, 51.55141314203573]

>  <Cp_T_units>  (1) 
cal/(mol*K)

>  <T_list>  (1) 
[300.0, 400.0, 500.0, 600.0, 800.0, 1000.0, 1500.0, 2000.0, 2400.0]

>  <T_units>  (1) 
K

>  <yaml_path>  (1) 
/home/calvin/Dropbox/PersonalFolders/Calvin/HAb_Converged/rxn_2018/output/Species/rxn_2018_CCC=S/rxn_2018_CCC=S.yml

>  <frequencies_cm1>  (1) 
[74.28704719176, 221.72122201215998, 335.63077450031994, 396.89115054004003, 760.5804270578799, 844.8108689929999, 880.5466605982799, 995.2665173541999, 1070.3913367549999, 1106.71082211248, 1174.46736626492, 1258.5398675376798, 1308.6619933883599, 1395.2272103322798, 1411.9963884837198, 1463.1416951470799, 1484.2233400794798, 1490.93925172244, 3001.8614307260796, 3019.9765380002395, 3047.92516825264, 3080.3167380070795, 3099.9288480809996, 3104.5915311132794]

>  <ZPE_kJmol>  (1) 
215.4991505651017

>  <E_elec_kJmol>  (1) 
-1355057.716452328

>  <E0_minus_Eelec_plus_ZPE_kJmol>  (1) 
0.0

>  <rxn>  (1) 
rxn_2018

>  <species_type>  (1) 
r1

>  <species_folder>  (1) 
rxn_2018_CCC=S

>  <frequencies_cm1_list>  (1) 
[74.28704719176, 221.72122201215998, 335.63077450031994, 396.89115054004003, 760.5804270578799, 844.8108689929999, 880.5466605982799, 995.2665173541999, 1070.3913367549999, 1106.71082211248, 1174.46736626492, 1258.5398675376798, 1308.6619933883599, 1395.2272103322798, 1411.9963884837198, 1463.1416951470799, 1484.2233400794798, 1490.93925172244, 3001.8614307260796, 3019.9765380002395, 3047.92516825264, 3080.3167380070795, 3099.9288480809996, 3104.5915311132794]

>  <E0_kJmol>  (1) 
-1.35484e+06

>  <H298_kJmol>  (1) 
-1.35483e+06

$$$$

     RDKit          3D

  6  5  0  0  0  0  0  0  0  0999 V2000
    0.9220   -0.2434    0.6818 C   0  0  0  0  0  0  0  0  0  1  0  0
   -0.4552    0.0677   -0.3379 S   0  0  0  0  0  0  0  0  0  2  0  0
    1.2941   -1.2558    0.5623 H   0  0  0  0  0  0  0  0  0  3  0  0
    0.8510    0.0928    1.7114 H   0  0  0  0  0  0  0  0  0  4  0  0
   -0.7179    1.3074    0.0982 H   0  0  0  0  0  0  0  0  0  5  0  0
    1.7438    0.3819    0.3480 H   0  0  0  0  0  0  0  0  0  6  0  0
  1  4  1  0
  1  3  1  0
  1  2  1  0
  1  6  1  0
  2  5  1  0
M  END
>  <rmg_smiles>  (2) 
CS

>  <rmg_adjacency_list>  (2) 
1 S u0 p2 c0 {2,S} {6,S}
2 C u0 p0 c0 {1,S} {3,S} {4,S} {5,S}
3 H u0 p0 c0 {2,S}
4 H u0 p0 c0 {2,S}
5 H u0 p0 c0 {2,S}
6 H u0 p0 c0 {1,S}


>  <multiplicity>  (2) 
1

>  <reaction>  (2) 
rxn_2018

>  <type>  (2) 
r2h

>  <role_mapnums>  (2) 
{"r2h_a": 1, "r2h_h": 6}

>  <role_mapidx>  (2) 
{"r2h_a": 0, "r2h_h": 5}

>  <ordered_mapped_smiles>  (2) 
[C:1]([S:2][H:5])([H:3])([H:4])[H:6]

>  <mol_properties>  (2) 
{"0": {"label": "acceptor", "atom_type": "Cs"}, "5": {"label": "a_hydrogen", "atom_type": "H0"}}

>  <level_of_theory>  (2) 
wb97xd/def2tzvp

>  <lot_method>  (2) 
wb97xd

>  <lot_basis>  (2) 
def2tzvp

>  <spin_multiplicity>  (2) 
1.0

>  <optical_isomers>  (2) 
1.0

>  <modes>  (2) 
IdealGasTranslation(mass=(48.0034, 'amu')),         NonlinearRotor(             inertia = ([4.88218, 38.8439, 40.5133

>  <frequency_value>  (2) 
unknown

>  <frequency_units>  (2) 
unknown

>  <frequency_list>  (2) 
unknown

>  <arkane_path>  (2) 
/home/calvin/Dropbox/PersonalFolders/Calvin/HAb_Converged/rxn_2018/output/Species/rxn_2018_CS/arkane/output.py

>  <path_exists>  (2) 
True

>  <E0_value>  (2) 
-1151727.0074722518

>  <E0_units>  (2) 
kJ/mol

>  <thermo_class>  (2) 
NASA

>  <Cp0_value>  (2) 
33.257888

>  <Cp0_units>  (2) 
J/(mol*K)

>  <CpInf_value>  (2) 
133.031552

>  <CpInf_units>  (2) 
J/(mol*K)

>  <Tmin_value>  (2) 
10.0

>  <Tmin_units>  (2) 
K

>  <Tmax_value>  (2) 
3000.0

>  <Tmax_units>  (2) 
K

>  <polynomials>  (2) 
[{"name": "polynomial1", "class": "NASAPolynomial", "Tmin_value": 10.0, "Tmin_units": "K", "Tmax_value": 512.0046987811082, "Tmax_units": "K", "coeffs": [3.9928587497669135, 0.0002559754074249204, 3.857280640825913e-05, -5.9282603001709694e-08, 2.982147399711347e-11, -138520762.43019888, 6.388595841908656]}, {"name": "polynomial2", "class": "NASAPolynomial", "Tmin_value": 512.0046987811082, "Tmin_units": "K", "Tmax_value": 3000.0, "Tmax_units": "K", "coeffs": [1.9274442242810899, 0.01639190572497184, -8.700073442106705e-06, 2.2701656845537463e-09, -2.333640907578926e-13, -138520550.93016994, 14.970390653960273]}]

>  <H298_value>  (2) 
-275266.5007544268

>  <H298_units>  (2) 
kcal/mol

>  <S298_value>  (2) 
60.53254852214023

>  <S298_units>  (2) 
cal/(mol*K)

>  <Cp_T_value_list>  (2) 
[12.285164170505567, 14.379905317207566, 16.329998202821564, 18.065044527000737, 20.944482261362513, 23.163034177843237, 26.669386406809583, 28.493484761208425, 29.402518411604955]

>  <Cp_T_units>  (2) 
cal/(mol*K)

>  <T_list>  (2) 
[300.0, 400.0, 500.0, 600.0, 800.0, 1000.0, 1500.0, 2000.0, 2400.0]

>  <T_units>  (2) 
K

>  <yaml_path>  (2) 
/home/calvin/Dropbox/PersonalFolders/Calvin/HAb_Converged/rxn_2018/output/Species/rxn_2018_CS/rxn_2018_CS.yml

>  <frequencies_cm1>  (2) 
[239.23203457815995, 718.5407429288399, 797.72395065376, 969.0552343877599, 1092.82577779544, 1352.90597980512, 1462.0155095546, 1475.7082782826799, 2706.3887863771197, 3036.2032243114, 3126.3324066364, 3127.7195376710397]

>  <ZPE_kJmol>  (2) 
120.25255493508004

>  <E_elec_kJmol>  (2) 
-1151847.260027187

>  <E0_minus_Eelec_plus_ZPE_kJmol>  (2) 
0.0

>  <rxn>  (2) 
rxn_2018

>  <species_type>  (2) 
p0

>  <species_folder>  (2) 
rxn_2018_CS

>  <frequencies_cm1_list>  (2) 
[239.23203457815995, 718.5407429288399, 797.72395065376, 969.0552343877599, 1092.82577779544, 1352.90597980512, 1462.0155095546, 1475.7082782826799, 2706.3887863771197, 3036.2032243114, 3126.3324066364, 3127.7195376710397]

>  <E0_kJmol>  (2) 
-1.15173e+06

>  <H298_kJmol>  (2) 
-1.15172e+06

$$$$

     RDKit          3D

 15 13  0  0  0  0  0  0  0  0999 V2000
   -0.5157   -1.5012    0.6216 C   0  0  0  0  0  3  0  0  0  1  0  0
   -1.8929   -1.1900   -0.3981 S   0  0  0  0  0  0  0  0  0  2  0  0
   -0.1436   -2.5135    0.5021 H   0  0  0  0  0  0  0  0  0  3  0  0
   -0.5867   -1.1650    1.6512 H   0  0  0  0  0  0  0  0  0  4  0  0
   -2.1556    0.0496    0.0380 H   0  0  0  0  0  0  0  0  0  5  0  0
    1.3870   -0.2108   -1.8296 C   0  0  0  0  0  0  0  0  0  6  0  0
    1.4790    0.0934   -0.3555 C   0  0  0  0  0  0  0  0  0  7  0  0
    1.0901    1.3978    0.1350 C   0  0  0  0  0  0  0  0  0  8  0  0
    0.1480    2.4902   -0.6232 S   0  0  0  0  0  0  0  0  0  9  0  0
    2.0835    0.4108   -2.3964 H   0  0  0  0  0  0  0  0  0 10  0  0
    1.6270   -1.2579   -2.0187 H   0  0  0  0  0  0  0  0  0 11  0  0
    0.3849   -0.0085   -2.2076 H   0  0  0  0  0  0  0  0  0 12  0  0
    0.5990   -0.6530    0.1688 H   0  0  0  0  0  0  0  0  0 13  0  0
    2.3842   -0.2789    0.1266 H   0  0  0  0  0  0  0  0  0 14  0  0
    1.4280    1.6205    1.1483 H   0  0  0  0  0  0  0  0  0 15  0  0
  1  4  1  0
  1  3  1  0
  1  2  1  0
  2  5  1  0
  6  7  1  0
  6 11  1  0
  6 12  1  0
  6 10  1  0
  7 13  1  0
  7 14  1  0
  7  8  1  0
  8  9  1  0
  8 15  1  0
M  RAD  1   1   2
M  END
>  <rmg_smiles>  (3) 
CC[CH][S].[CH2]S

>  <rmg_adjacency_list>  (3) 
multiplicity 2
1  S u0 p2 c0 {6,S} {15,S}
2  S u0 p2 c0 {5,S}
3  C u0 p0 c0 {4,S} {5,S} {7,S} {8,S}
4  C u0 p0 c0 {3,S} {9,S} {10,S} {11,S}
5  C u0 p0 c0 {2,S} {3,S} {12,S}
6  C u1 p0 c0 {1,S} {13,S} {14,S}
7  H u0 p0 c0 {3,S}
8  H u0 p0 c0 {3,S}
9  H u0 p0 c0 {4,S}
10 H u0 p0 c0 {4,S}
11 H u0 p0 c0 {4,S}
12 H u0 p0 c0 {5,S}
13 H u0 p0 c0 {6,S}
14 H u0 p0 c0 {6,S}
15 H u0 p0 c0 {1,S}


>  <multiplicity>  (3) 
2

>  <reaction>  (3) 
rxn_2018

>  <type>  (3) 
ts

>  <role_mapnums>  (3) 
{"*2": 13, "*1": 7, "*3": 1, "*0": 8, "*4": 2}

>  <role_mapidx>  (3) 
{"*2": 12, "*1": 6, "*3": 0, "*0": 7, "*4": 1}

>  <ordered_mapped_smiles>  (3) 
[C:1]([S:2][H:5])([H:3])[H:4].[C:6]([C:7]([CH:8]([SH:9])[H:15])([H:13])[H:14])([H:10])([H:11])[H:12]

>  <mol_properties>  (3) 
{"0": {"label": "*3", "atom_type": "Cs"}, "1": {"label": "*4", "atom_type": "S2s"}, "6": {"label": "*1", "atom_type": "Cs"}, "7": {"label": "*0", "atom_type": "Cs"}, "12": {"label": "*2", "atom_type": "H0"}}

>  <level_of_theory>  (3) 
wb97xd/def2tzvp

>  <lot_method>  (3) 
wb97xd

>  <lot_basis>  (3) 
def2tzvp

>  <spin_multiplicity>  (3) 
2.0

>  <optical_isomers>  (3) 
2.0

>  <modes>  (3) 
IdealGasTranslation(mass=(121.015, 'amu')),         NonlinearRotor(             inertia = ([182.72, 430.513, 504.96

>  <frequency_value>  (3) 
-1476.01

>  <frequency_units>  (3) 
cm^-1

>  <frequency_list>  (3) 
unknown

>  <arkane_path>  (3) 
/home/calvin/Dropbox/PersonalFolders/Calvin/HAb_Converged/rxn_2018/output/rxns/TS0/arkane/output.py

>  <path_exists>  (3) 
True

>  <E0_value>  (3) 
-2504840.0

>  <E0_units>  (3) 
kJ/mol

>  <thermo_class>  (3) 
unknown

>  <Cp0_value>  (3) 
unknown

>  <Cp0_units>  (3) 
unknown

>  <CpInf_value>  (3) 
unknown

>  <CpInf_units>  (3) 
unknown

>  <Tmin_value>  (3) 
unknown

>  <Tmin_units>  (3) 
unknown

>  <Tmax_value>  (3) 
unknown

>  <Tmax_units>  (3) 
unknown

>  <polynomials>  (3) 
unknown

>  <H298_value>  (3) 
unknown

>  <H298_units>  (3) 
unknown

>  <S298_value>  (3) 
unknown

>  <S298_units>  (3) 
unknown

>  <Cp_T_value_list>  (3) 
unknown

>  <Cp_T_units>  (3) 
unknown

>  <T_list>  (3) 
unknown

>  <T_units>  (3) 
unknown

>  <yaml_path>  (3) 
unknown

>  <frequencies_cm1>  (3) 
unknown

>  <ZPE_kJmol>  (3) 
unknown

>  <E_elec_kJmol>  (3) 
unknown

>  <E0_minus_Eelec_plus_ZPE_kJmol>  (3) 
unknown

>  <rxn>  (3) 
unknown

>  <species_type>  (3) 
unknown

>  <species_folder>  (3) 
unknown

>  <frequencies_cm1_list>  (3) 
[]

>  <ts_imag_freq_cm1>  (3) 
-1493.9387

>  <ts_freq_out_path>  (3) 
/home/calvin/Dropbox/PersonalFolders/Calvin/HAb_Converged/rxn_2018/output/rxns/TS0/geometry/freq.out

>  <E0_kJmol>  (3) 
-2.50484e+06

>  <H298_kJmol>  (3) 
unknown

$$$$

     RDKit          3D

  9  8  0  0  0  0  0  0  0  0999 V2000
   -1.2704   -0.1236    0.1096 C   0  0  0  0  0  0  0  0  0  1  0  0
    0.0713   -0.5323    0.5887 C   0  0  0  0  0  0  0  0  0  2  0  0
    0.9521   -1.3639   -0.0464 C   0  0  0  0  0  0  0  0  0  3  0  0
    0.6900   -2.1109   -1.5335 S   0  0  0  0  0  1  0  0  0  4  0  0
   -1.3201    0.9657    0.0241 H   0  0  0  0  0  0  0  0  0  5  0  0
   -1.5103   -0.5706   -0.8526 H   0  0  0  0  0  0  0  0  0  6  0  0
   -2.0312   -0.4112    0.8411 H   0  0  0  0  0  0  0  0  0  7  0  0
    0.3863   -0.1265    1.5468 H   0  0  0  0  0  0  0  0  0  8  0  0
    1.8971   -1.5543    0.4552 H   0  0  0  0  0  0  0  0  0  9  0  0
  1  5  1  0
  1  7  1  0
  1  6  1  0
  1  2  1  0
  2  8  1  0
  2  3  1  0
  3  9  1  0
  3  4  1  0
M  RAD  1   4   2
M  END
>  <rmg_smiles>  (4) 
C[CH][CH][S]

>  <rmg_adjacency_list>  (4) 
multiplicity 2
1 S u1 p2 c0 {4,S}
2 C u0 p0 c0 {3,S} {5,S} {6,S} {7,S}
3 C u0 p0 c0 {2,S} {4,S} {8,S}
4 C u0 p0 c0 {1,S} {3,S} {9,S}
5 H u0 p0 c0 {2,S}
6 H u0 p0 c0 {2,S}
7 H u0 p0 c0 {2,S}
8 H u0 p0 c0 {3,S}
9 H u0 p0 c0 {4,S}


>  <multiplicity>  (4) 
2

>  <reaction>  (4) 
rxn_2018

>  <type>  (4) 
r1

>  <role_mapnums>  (4) 
{}

>  <role_mapidx>  (4) 
{}

>  <ordered_mapped_smiles>  (4) 
[C:1]([CH:2]([CH:3]([S:4])[H:9])[H:8])([H:5])([H:6])[H:7]

>  <level_of_theory>  (4) 
wb97xd/def2tzvp

>  <lot_method>  (4) 
wb97xd

>  <lot_basis>  (4) 
def2tzvp

>  <spin_multiplicity>  (4) 
2.0

>  <optical_isomers>  (4) 
1.0

>  <modes>  (4) 
IdealGasTranslation(mass=(73.0112, 'amu')),         NonlinearRotor(             inertia = ([33.6944, 136.887, 167.488

>  <frequency_value>  (4) 
unknown

>  <frequency_units>  (4) 
unknown

>  <frequency_list>  (4) 
unknown

>  <arkane_path>  (4) 
/home/calvin/Dropbox/PersonalFolders/Calvin/HAb_Converged/rxn_2018/output/Species/rxn_2018_C[CH]C=S/arkane/output.py

>  <path_exists>  (4) 
True

>  <E0_value>  (4) 
-1353215.6281101538

>  <E0_units>  (4) 
kJ/mol

>  <thermo_class>  (4) 
NASA

>  <Cp0_value>  (4) 
33.257888

>  <Cp0_units>  (4) 
J/(mol*K)

>  <CpInf_value>  (4) 
207.8618

>  <CpInf_units>  (4) 
J/(mol*K)

>  <Tmin_value>  (4) 
10.0

>  <Tmin_units>  (4) 
K

>  <Tmax_value>  (4) 
3000.0

>  <Tmax_units>  (4) 
K

>  <polynomials>  (4) 
[{"name": "polynomial1", "class": "NASAPolynomial", "Tmin_value": 10.0, "Tmin_units": "K", "Tmax_value": 725.9670831251275, "Tmax_units": "K", "coeffs": [3.8816748203713503, 0.011298408175925107, 3.675471007626225e-05, -5.977324289779361e-08, 2.695700402648573e-11, -162754245.86998293, 10.102760819727918]}, {"name": "polynomial2", "class": "NASAPolynomial", "Tmin_value": 725.9670831251275, "Tmin_units": "K", "Tmax_value": 3000.0, "Tmax_units": "K", "coeffs": [2.113334188366536, 0.02911249006728392, -1.6728703347228576e-05, 4.6550260025625346e-09, -5.035736545429853e-13, -162754201.7933275, 16.602901379195625]}]

>  <H298_value>  (4) 
-323422.5645571532

>  <H298_units>  (4) 
kcal/mol

>  <S298_value>  (4) 
73.01356091694491

>  <S298_units>  (4) 
cal/(mol*K)

>  <Cp_T_value_list>  (4) 
[18.249700390386565, 22.1502054191087, 25.699972971809594, 28.76485903066641, 33.53225294606782, 37.05856600875504, 42.33516489554981, 44.92384433755821, 46.24168569821556]

>  <Cp_T_units>  (4) 
cal/(mol*K)

>  <T_list>  (4) 
[300.0, 400.0, 500.0, 600.0, 800.0, 1000.0, 1500.0, 2000.0, 2400.0]

>  <T_units>  (4) 
K

>  <yaml_path>  (4) 
/home/calvin/Dropbox/PersonalFolders/Calvin/HAb_Converged/rxn_2018/output/Species/rxn_2018_C[CH]C=S/rxn_2018_CCHC=S.yml

>  <frequencies_cm1>  (4) 
[111.67778225915998, 241.84835598508, 328.91486285736, 569.66450119124, 701.4282155114, 825.4665713465598, 919.54427023056, 945.2817312099198, 1036.1937498614, 1093.82149066684, 1239.0307622435598, 1356.916299232, 1389.82289288544, 1434.05314533156, 1462.16658323164, 1523.85957934652, 3007.1696103784398, 3060.1209341809595, 3105.60097795532, 3123.1735933892, 3133.0620522499994]

>  <ZPE_kJmol>  (4) 
183.08144113792287

>  <E_elec_kJmol>  (4) 
-1353398.7095512918

>  <E0_minus_Eelec_plus_ZPE_kJmol>  (4) 
0.0

>  <rxn>  (4) 
rxn_2018

>  <species_type>  (4) 
p1

>  <species_folder>  (4) 
rxn_2018_C[CH]C=S

>  <frequencies_cm1_list>  (4) 
[111.67778225915998, 241.84835598508, 328.91486285736, 569.66450119124, 701.4282155114, 825.4665713465598, 919.54427023056, 945.2817312099198, 1036.1937498614, 1093.82149066684, 1239.0307622435598, 1356.916299232, 1389.82289288544, 1434.05314533156, 1462.16658323164, 1523.85957934652, 3007.1696103784398, 3060.1209341809595, 3105.60097795532, 3123.1735933892, 3133.0620522499994]

>  <E0_kJmol>  (4) 
-1.35322e+06

>  <H298_kJmol>  (4) 
-1.3532e+06

$$$$

     RDKit          3D

  5  4  0  0  0  0  0  0  0  0999 V2000
   -0.5642    0.0794    0.0348 C   0  0  0  0  0  3  0  0  0  1  0  0
    1.0624    0.5420    0.2853 S   0  0  0  0  0  0  0  0  0  2  0  0
   -1.3257    0.7631    0.3741 H   0  0  0  0  0  0  0  0  0  3  0  0
   -0.8236   -0.8519   -0.4401 H   0  0  0  0  0  0  0  0  0  4  0  0
    1.6511   -0.5325   -0.2540 H   0  0  0  0  0  0  0  0  0  5  0  0
  1  3  1  0
  1  2  1  0
  1  4  1  0
  2  5  1  0
M  RAD  1   1   2
M  END
>  <rmg_smiles>  (5) 
[CH2]S

>  <rmg_adjacency_list>  (5) 
multiplicity 2
1 S u0 p2 c0 {2,S} {5,S}
2 C u1 p0 c0 {1,S} {3,S} {4,S}
3 H u0 p0 c0 {2,S}
4 H u0 p0 c0 {2,S}
5 H u0 p0 c0 {1,S}


>  <multiplicity>  (5) 
2

>  <reaction>  (5) 
rxn_2018

>  <type>  (5) 
r2

>  <role_mapnums>  (5) 
{}

>  <role_mapidx>  (5) 
{}

>  <ordered_mapped_smiles>  (5) 
[C:1]([S:2][H:5])([H:3])[H:4]

>  <level_of_theory>  (5) 
wb97xd/def2tzvp

>  <lot_method>  (5) 
wb97xd

>  <lot_basis>  (5) 
def2tzvp

>  <spin_multiplicity>  (5) 
2.0

>  <optical_isomers>  (5) 
1.0

>  <modes>  (5) 
IdealGasTranslation(mass=(46.9956, 'amu')),         NonlinearRotor(             inertia = ([3.47508, 32.1188, 35.5939

>  <frequency_value>  (5) 
unknown

>  <frequency_units>  (5) 
unknown

>  <frequency_list>  (5) 
unknown

>  <arkane_path>  (5) 
/home/calvin/Dropbox/PersonalFolders/Calvin/HAb_Converged/rxn_2018/output/Species/rxn_2018_[CH2]S/arkane/output.py

>  <path_exists>  (5) 
True

>  <E0_value>  (5) 
-1150024.3332710424

>  <E0_units>  (5) 
kJ/mol

>  <thermo_class>  (5) 
NASA

>  <Cp0_value>  (5) 
33.257888

>  <Cp0_units>  (5) 
J/(mol*K)

>  <CpInf_value>  (5) 
108.088136

>  <CpInf_units>  (5) 
J/(mol*K)

>  <Tmin_value>  (5) 
10.0

>  <Tmin_units>  (5) 
K

>  <Tmax_value>  (5) 
3000.0

>  <Tmax_units>  (5) 
K

>  <polynomials>  (5) 
[{"name": "polynomial1", "class": "NASAPolynomial", "Tmin_value": 10.0, "Tmin_units": "K", "Tmax_value": 228.7632631011955, "Tmax_units": "K", "coeffs": [3.952412159768893, 0.004869189743453995, 7.700507410130638e-05, -3.7784535832034173e-07, 5.662383077803353e-10, -138315979.8249789, 6.828268654504248]}, {"name": "polynomial2", "class": "NASAPolynomial", "Tmin_value": 228.7632631011955, "Tmin_units": "K", "Tmax_value": 3000.0, "Tmax_units": "K", "coeffs": [4.0647189913044315, 0.010177206447780005, -5.480339108667681e-06, 1.4876276440090965e-09, -1.6083284592339647e-13, -138316003.99077362, 6.036236642771031]}]

>  <H298_value>  (5) 
-274859.2476351292

>  <H298_units>  (5) 
kcal/mol

>  <S298_value>  (5) 
63.58185598753384

>  <S298_units>  (5) 
cal/(mol*K)

>  <Cp_T_value_list>  (5) 
[13.241777557438835, 14.605646175289959, 15.816452446168032, 16.888481942792666, 18.669517607236212, 20.047696562682138, 22.269217674285446, 23.499652986162165, 24.148886967222168]

>  <Cp_T_units>  (5) 
cal/(mol*K)

>  <T_list>  (5) 
[300.0, 400.0, 500.0, 600.0, 800.0, 1000.0, 1500.0, 2000.0, 2400.0]

>  <T_units>  (5) 
K

>  <yaml_path>  (5) 
/home/calvin/Dropbox/PersonalFolders/Calvin/HAb_Converged/rxn_2018/output/Species/rxn_2018_[CH2]S/rxn_2018_CH2S.yml

>  <frequencies_cm1>  (5) 
[112.26147601135997, 339.84023650148, 784.39513214764, 853.62121115856, 1068.3930440268798, 1401.38689616432, 2708.6686255033596, 3159.5548816145597, 3285.6189981191196]

>  <ZPE_kJmol>  (5) 
82.02640747232539

>  <E_elec_kJmol>  (5) 
-1150106.3596785148

>  <E0_minus_Eelec_plus_ZPE_kJmol>  (5) 
0.0

>  <rxn>  (5) 
rxn_2018

>  <species_type>  (5) 
r0

>  <species_folder>  (5) 
rxn_2018_[CH2]S

>  <frequencies_cm1_list>  (5) 
[112.26147601135997, 339.84023650148, 784.39513214764, 853.62121115856, 1068.3930440268798, 1401.38689616432, 2708.6686255033596, 3159.5548816145597, 3285.6189981191196]

>  <E0_kJmol>  (5) 
-1.15002e+06

>  <H298_kJmol>  (5) 
-1.15001e+06

$$$$
