
     RDKit          3D

  7  6  0  0  0  0  0  0  0  0999 V2000
    0.1383    0.1660    1.2648 C   0  0  0  0  0  0  0  0  0  1  0  0
    0.0382    0.0488    0.0030 C   0  0  0  0  0  2  0  0  0  2  0  0
   -0.1473   -0.1774   -1.2813 C   0  0  0  0  0  0  0  0  0  3  0  0
   -0.4412   -0.5805    1.7839 H   0  0  0  0  0  0  0  0  0  4  0  0
    0.6783    0.8518    1.8978 H   0  0  0  0  0  0  0  0  0  5  0  0
   -0.9512    0.3072   -1.8209 H   0  0  0  0  0  0  0  0  0  6  0  0
    0.5129   -0.8364   -1.8309 H   0  0  0  0  0  0  0  0  0  7  0  0
  1  5  1  0
  1  4  1  0
  1  2  1  0
  2  3  1  0
  3  6  1  0
  3  7  1  0
M  RAD  1   2   3
M  END
>  <rmg_smiles>  (1) 
[CH2][C][CH2]

>  <rmg_adjacency_list>  (1) 
1 C u0 p0 c0 {3,S} {4,S} {5,S}
2 C u0 p0 c0 {3,S} {6,S} {7,S}
3 C u0 p1 c0 {1,S} {2,S}
4 H u0 p0 c0 {1,S}
5 H u0 p0 c0 {1,S}
6 H u0 p0 c0 {2,S}
7 H u0 p0 c0 {2,S}


>  <multiplicity>  (1) 
1

>  <reaction>  (1) 
rxn_1832

>  <type>  (1) 
r1h

>  <role_mapnums>  (1) 
{"r1h_a": 1, "r1h_h": 4}

>  <role_mapidx>  (1) 
{"r1h_a": 0, "r1h_h": 3}

>  <ordered_mapped_smiles>  (1) 
[CH:1]([C:2][CH:3]([H:6])[H:7])([H:4])[H:5]

>  <mol_properties>  (1) 
{"0": {"label": "donator", "atom_type": "Cs"}, "3": {"label": "d_hydrogen", "atom_type": "H0"}}

>  <level_of_theory>  (1) 
wb97xd/def2tzvp

>  <lot_method>  (1) 
wb97xd

>  <lot_basis>  (1) 
def2tzvp

>  <spin_multiplicity>  (1) 
1.0

>  <optical_isomers>  (1) 
1.0

>  <modes>  (1) 
IdealGasTranslation(mass=(40.0313, 'amu')),         NonlinearRotor(             inertia = ([3.47492, 56.1175, 56.1175

>  <frequency_value>  (1) 
unknown

>  <frequency_units>  (1) 
unknown

>  <frequency_list>  (1) 
unknown

>  <arkane_path>  (1) 
/home/calvin/Dropbox/PersonalFolders/Calvin/HAb_Converged/rxn_1832/output/Species/rxn_1832_C=C=C/arkane/output.py

>  <path_exists>  (1) 
True

>  <E0_value>  (1) 
-306138.997842003

>  <E0_units>  (1) 
kJ/mol

>  <thermo_class>  (1) 
NASA

>  <Cp0_value>  (1) 
33.257888

>  <Cp0_units>  (1) 
J/(mol*K)

>  <CpInf_value>  (1) 
157.97496800000002

>  <CpInf_units>  (1) 
J/(mol*K)

>  <Tmin_value>  (1) 
10.0

>  <Tmin_units>  (1) 
K

>  <Tmax_value>  (1) 
3000.0

>  <Tmax_units>  (1) 
K

>  <polynomials>  (1) 
[{"name": "polynomial1", "class": "NASAPolynomial", "Tmin_value": 10.0, "Tmin_units": "K", "Tmax_value": 478.689340519761, "Tmax_units": "K", "coeffs": [4.059516161453229, -0.005912614580382805, 9.600646743971966e-05, -1.77788062123867e-07, 1.0996134921450719e-10, -36820016.27934644, 4.873728959152359]}, {"name": "polynomial2", "class": "NASAPolynomial", "Tmin_value": 478.689340519761, "Tmin_units": "K", "Tmax_value": 3000.0, "Tmax_units": "K", "coeffs": [1.5378315597470078, 0.021998336555596625, -1.2885639168275073e-05, 3.7126389769187168e-09, -4.1726814982831054e-13, -36819853.21856111, 14.36318164832194]}]

>  <H298_value>  (1) 
-73166.0043183083

>  <H298_units>  (1) 
kcal/mol

>  <S298_value>  (1) 
57.92822490187408

>  <S298_units>  (1) 
cal/(mol*K)

>  <Cp_T_value_list>  (1) 
[13.943677776035827, 16.87551595392454, 19.382398763692873, 21.552954477195343, 25.077850238681368, 27.71338269288983, 31.716580438515564, 33.81583480861908, 34.95918145570537]

>  <Cp_T_units>  (1) 
cal/(mol*K)

>  <T_list>  (1) 
[300.0, 400.0, 500.0, 600.0, 800.0, 1000.0, 1500.0, 2000.0, 2400.0]

>  <T_units>  (1) 
K

>  <yaml_path>  (1) 
/home/calvin/Dropbox/PersonalFolders/Calvin/HAb_Converged/rxn_1832/output/Species/rxn_1832_C=C=C/rxn_1832_C=C=C.yml

>  <frequencies_cm1>  (1) 
[373.07644545027995, 373.220652142, 876.8041535988799, 876.92775933464, 877.4153152923599, 1011.45886873876, 1011.6717452836799, 1107.69280101324, 1411.7835119388, 1473.7992563637201, 2053.1530738414795, 3116.3066080692, 3118.70318594588, 3198.73789985048, 3198.8546386009198]

>  <ZPE_kJmol>  (1) 
144.0280692503442

>  <E_elec_kJmol>  (1) 
-306283.0259112533

>  <E0_minus_Eelec_plus_ZPE_kJmol>  (1) 
0.0

>  <rxn>  (1) 
rxn_1832

>  <species_type>  (1) 
r1

>  <species_folder>  (1) 
rxn_1832_C=C=C

>  <frequencies_cm1_list>  (1) 
[373.07644545027995, 373.220652142, 876.8041535988799, 876.92775933464, 877.4153152923599, 1011.45886873876, 1011.6717452836799, 1107.69280101324, 1411.7835119388, 1473.7992563637201, 2053.1530738414795, 3116.3066080692, 3118.70318594588, 3198.73789985048, 3198.8546386009198]

>  <E0_kJmol>  (1) 
-306139

>  <H298_kJmol>  (1) 
-306127

$$$$

     RDKit          3D

  4  3  0  0  0  0  0  0  0  0999 V2000
    0.4896    0.6206    0.7135 C   0  0  0  0  0  0  0  0  0  1  0  0
   -0.2374   -0.3010   -0.3326 S   0  0  0  0  0  0  0  0  0  2  0  0
    0.4398    0.5473    1.8005 H   0  0  0  0  0  0  0  0  0  3  0  0
    1.1185    1.4290    0.3389 H   0  0  0  0  0  0  0  0  0  4  0  0
  1  3  1  0
  1  2  1  0
  1  4  1  0
M  END
>  <rmg_smiles>  (2) 
[CH2][S]

>  <rmg_adjacency_list>  (2) 
1 S u0 p2 c0 {2,S}
2 C u0 p0 c0 {1,S} {3,S} {4,S}
3 H u0 p0 c0 {2,S}
4 H u0 p0 c0 {2,S}


>  <multiplicity>  (2) 
1

>  <reaction>  (2) 
rxn_1832

>  <type>  (2) 
r2h

>  <role_mapnums>  (2) 
{"r2h_a": 1, "r2h_h": 4}

>  <role_mapidx>  (2) 
{"r2h_a": 0, "r2h_h": 3}

>  <ordered_mapped_smiles>  (2) 
[CH:1]([SH:2])([H:3])[H:4]

>  <mol_properties>  (2) 
{"0": {"label": "acceptor", "atom_type": "Cs"}, "3": {"label": "a_hydrogen", "atom_type": "H0"}}

>  <level_of_theory>  (2) 
wb97xd/def2tzvp

>  <lot_method>  (2) 
wb97xd

>  <lot_basis>  (2) 
def2tzvp

>  <spin_multiplicity>  (2) 
1.0

>  <optical_isomers>  (2) 
1.0

>  <modes>  (2) 
IdealGasTranslation(mass=(45.9877, 'amu')),         NonlinearRotor(             inertia = ([1.71338, 28.1219, 29.8353

>  <frequency_value>  (2) 
unknown

>  <frequency_units>  (2) 
unknown

>  <frequency_list>  (2) 
unknown

>  <arkane_path>  (2) 
/home/calvin/Dropbox/PersonalFolders/Calvin/HAb_Converged/rxn_1832/output/Species/rxn_1832_C=S/arkane/output.py

>  <path_exists>  (2) 
True

>  <E0_value>  (2) 
-1148515.0119791944

>  <E0_units>  (2) 
kJ/mol

>  <thermo_class>  (2) 
NASA

>  <Cp0_value>  (2) 
33.257888

>  <Cp0_units>  (2) 
J/(mol*K)

>  <CpInf_value>  (2) 
83.14472

>  <CpInf_units>  (2) 
J/(mol*K)

>  <Tmin_value>  (2) 
10.0

>  <Tmin_units>  (2) 
K

>  <Tmax_value>  (2) 
3000.0

>  <Tmax_units>  (2) 
K

>  <polynomials>  (2) 
[{"name": "polynomial1", "class": "NASAPolynomial", "Tmin_value": 10.0, "Tmin_units": "K", "Tmax_value": 771.1023982895529, "Tmax_units": "K", "coeffs": [4.057918470915095, -0.0038971951394704777, 2.7865481527840122e-05, -3.339907350842199e-08, 1.3156005151123656e-11, -138134450.93834215, 4.796909249678014]}, {"name": "polynomial2", "class": "NASAPolynomial", "Tmin_value": 771.1023982895529, "Tmin_units": "K", "Tmax_value": 3000.0, "Tmax_units": "K", "coeffs": [2.2195861263721026, 0.009353304799713729, -5.135727341319228e-06, 1.3794102179004984e-09, -1.4486794484554268e-13, -138134277.85799038, 12.471914163193425]}]

>  <H298_value>  (2) 
-274499.24983023386

>  <H298_units>  (2) 
kcal/mol

>  <S298_value>  (2) 
55.09030606920983

>  <S298_units>  (2) 
cal/(mol*K)

>  <Cp_T_value_list>  (2) 
[9.144015304302352, 10.247567835527857, 11.3728969034777, 12.404129320940395, 14.034217846971831, 15.245263754085405, 17.122312373494182, 18.08493241889944, 18.57705079226723]

>  <Cp_T_units>  (2) 
cal/(mol*K)

>  <T_list>  (2) 
[300.0, 400.0, 500.0, 600.0, 800.0, 1000.0, 1500.0, 2000.0, 2400.0]

>  <T_units>  (2) 
K

>  <yaml_path>  (2) 
/home/calvin/Dropbox/PersonalFolders/Calvin/HAb_Converged/rxn_1832/output/Species/rxn_1832_C=S/rxn_1832_C=S.yml

>  <frequencies_cm1>  (2) 
[998.78241383804, 1035.3697116229998, 1105.88678387408, 1486.7572576625598, 3052.0178915033594, 3137.7316022676]

>  <ZPE_kJmol>  (2) 
64.69732905712529

>  <E_elec_kJmol>  (2) 
-1148579.7093082515

>  <E0_minus_Eelec_plus_ZPE_kJmol>  (2) 
0.0

>  <rxn>  (2) 
rxn_1832

>  <species_type>  (2) 
p0

>  <species_folder>  (2) 
rxn_1832_C=S

>  <frequencies_cm1_list>  (2) 
[998.78241383804, 1035.3697116229998, 1105.88678387408, 1486.7572576625598, 3052.0178915033594, 3137.7316022676]

>  <E0_kJmol>  (2) 
-1.14852e+06

>  <H298_kJmol>  (2) 
-1.1485e+06

$$$$

     RDKit          3D

 10  8  0  0  0  0  0  0  0  0999 V2000
   -0.3066   -0.3704    1.3423 C   0  0  0  0  0  0  0  0  0  1  0  0
   -1.0336   -1.2919    0.2963 S   0  0  0  0  0  0  0  0  0  2  0  0
   -0.3564   -0.4436    2.4293 H   0  0  0  0  0  0  0  0  0  3  0  0
    1.1902    1.5556    0.2330 C   0  0  0  0  0  0  0  0  0  4  0  0
    1.0901    1.4384   -1.0288 C   0  0  0  0  0  0  0  0  0  5  0  0
    0.9045    1.2121   -2.3131 C   0  0  0  0  0  3  0  0  0  6  0  0
    0.4645    0.6209    0.8830 H   0  0  0  0  0  0  0  0  0  7  0  0
    1.7302    2.2414    0.8660 H   0  0  0  0  0  0  0  0  0  8  0  0
    0.1007    1.6968   -2.8527 H   0  0  0  0  0  0  0  0  0  9  0  0
    1.5648    0.5531   -2.8627 H   0  0  0  0  0  0  0  0  0 10  0  0
  1  7  1  0
  1  3  1  0
  1  2  1  0
  4  8  1  0
  4  5  1  0
  5  6  1  0
  6  9  1  0
  6 10  1  0
M  RAD  1   6   2
M  END
>  <rmg_smiles>  (3) 
[CH][C][CH2].[CH2][S]

>  <rmg_adjacency_list>  (3) 
multiplicity 2
1  S u0 p2 c0 {3,S}
2  C u1 p0 c0 {4,S} {6,S} {7,S}
3  C u0 p0 c0 {1,S} {8,S} {9,S}
4  C u0 p1 c0 {2,S} {5,S}
5  C u0 p1 c0 {4,S} {10,S}
6  H u0 p0 c0 {2,S}
7  H u0 p0 c0 {2,S}
8  H u0 p0 c0 {3,S}
9  H u0 p0 c0 {3,S}
10 H u0 p0 c0 {5,S}


>  <multiplicity>  (3) 
2

>  <reaction>  (3) 
rxn_1832

>  <type>  (3) 
ts

>  <role_mapnums>  (3) 
{"*2": 7, "*1": 4, "*3": 1, "*0": 2, "*4": 5}

>  <role_mapidx>  (3) 
{"*2": 6, "*1": 3, "*3": 0, "*0": 1, "*4": 4}

>  <ordered_mapped_smiles>  (3) 
[CH:1]([SH:2])([H:3])[H:7].[CH2:4]([CH2:5][C:6]([H:9])[H:10])[H:8]

>  <mol_properties>  (3) 
{"0": {"label": "*3", "atom_type": "Cs"}, "1": {"label": "*0", "atom_type": "S2s"}, "3": {"label": "*1", "atom_type": "C2s"}, "4": {"label": "*4", "atom_type": "C2s"}, "6": {"label": "*2", "atom_type": "H0"}}

>  <level_of_theory>  (3) 
wb97xd/def2tzvp

>  <lot_method>  (3) 
wb97xd

>  <lot_basis>  (3) 
def2tzvp

>  <spin_multiplicity>  (3) 
2.0

>  <optical_isomers>  (3) 
1.0

>  <modes>  (3) 
IdealGasTranslation(mass=(85.0112, 'amu')),         NonlinearRotor(             inertia = ([72.9707, 268.854, 338.347

>  <frequency_value>  (3) 
-1755.5

>  <frequency_units>  (3) 
cm^-1

>  <frequency_list>  (3) 
unknown

>  <arkane_path>  (3) 
/home/calvin/Dropbox/PersonalFolders/Calvin/HAb_Converged/rxn_1832/output/rxns/TS0/arkane/output.py

>  <path_exists>  (3) 
True

>  <E0_value>  (3) 
-1452900.0

>  <E0_units>  (3) 
kJ/mol

>  <thermo_class>  (3) 
unknown

>  <Cp0_value>  (3) 
unknown

>  <Cp0_units>  (3) 
unknown

>  <CpInf_value>  (3) 
unknown

>  <CpInf_units>  (3) 
unknown

>  <Tmin_value>  (3) 
unknown

>  <Tmin_units>  (3) 
unknown

>  <Tmax_value>  (3) 
unknown

>  <Tmax_units>  (3) 
unknown

>  <polynomials>  (3) 
unknown

>  <H298_value>  (3) 
unknown

>  <H298_units>  (3) 
unknown

>  <S298_value>  (3) 
unknown

>  <S298_units>  (3) 
unknown

>  <Cp_T_value_list>  (3) 
unknown

>  <Cp_T_units>  (3) 
unknown

>  <T_list>  (3) 
unknown

>  <T_units>  (3) 
unknown

>  <yaml_path>  (3) 
unknown

>  <frequencies_cm1>  (3) 
unknown

>  <ZPE_kJmol>  (3) 
unknown

>  <E_elec_kJmol>  (3) 
unknown

>  <E0_minus_Eelec_plus_ZPE_kJmol>  (3) 
unknown

>  <rxn>  (3) 
unknown

>  <species_type>  (3) 
unknown

>  <species_folder>  (3) 
unknown

>  <frequencies_cm1_list>  (3) 
[]

>  <ts_imag_freq_cm1>  (3) 
-1776.8207

>  <ts_freq_out_path>  (3) 
/home/calvin/Dropbox/PersonalFolders/Calvin/HAb_Converged/rxn_1832/output/rxns/TS0/geometry/freq.out

>  <E0_kJmol>  (3) 
-1.4529e+06

>  <H298_kJmol>  (3) 
unknown

$$$$

     RDKit          3D

  6  5  0  0  0  0  0  0  0  0999 V2000
    1.4968   -0.0097    0.1113 C   0  0  0  0  0  0  0  0  0  1  0  0
    0.2829   -0.0018    0.0210 C   0  0  0  0  0  0  0  0  0  2  0  0
   -1.0795    0.0070   -0.0803 C   0  0  0  0  0  3  0  0  0  3  0  0
    2.5571   -0.0165    0.1902 H   0  0  0  0  0  0  0  0  0  4  0  0
   -1.6181    0.9389   -0.1832 H   0  0  0  0  0  0  0  0  0  5  0  0
   -1.6393   -0.9179   -0.0591 H   0  0  0  0  0  0  0  0  0  6  0  0
  1  4  1  0
  1  2  1  0
  2  3  1  0
  3  6  1  0
  3  5  1  0
M  RAD  1   3   2
M  END
>  <rmg_smiles>  (4) 
[CH]C[CH2]

>  <rmg_adjacency_list>  (4) 
multiplicity 2
1 C u1 p0 c0 {2,S} {4,S} {5,S}
2 C u0 p1 c0 {1,S} {3,S}
3 C u0 p1 c0 {2,S} {6,S}
4 H u0 p0 c0 {1,S}
5 H u0 p0 c0 {1,S}
6 H u0 p0 c0 {3,S}


>  <multiplicity>  (4) 
2

>  <reaction>  (4) 
rxn_1832

>  <type>  (4) 
r1

>  <role_mapnums>  (4) 
{}

>  <role_mapidx>  (4) 
{}

>  <ordered_mapped_smiles>  (4) 
[CH2:1]([CH2:2][C:3]([H:5])[H:6])[H:4]

>  <level_of_theory>  (4) 
wb97xd/def2tzvp

>  <lot_method>  (4) 
wb97xd

>  <lot_basis>  (4) 
def2tzvp

>  <spin_multiplicity>  (4) 
2.0

>  <optical_isomers>  (4) 
1.0

>  <modes>  (4) 
IdealGasTranslation(mass=(39.0235, 'amu')),         NonlinearRotor(             inertia = ([1.74527, 52.5377, 54.2829

>  <frequency_value>  (4) 
unknown

>  <frequency_units>  (4) 
unknown

>  <frequency_list>  (4) 
unknown

>  <arkane_path>  (4) 
/home/calvin/Dropbox/PersonalFolders/Calvin/HAb_Converged/rxn_1832/output/Species/rxn_1832_[CH]=C=C/arkane/output.py

>  <path_exists>  (4) 
True

>  <E0_value>  (4) 
-304448.46556643327

>  <E0_units>  (4) 
kJ/mol

>  <thermo_class>  (4) 
NASA

>  <Cp0_value>  (4) 
33.257888

>  <Cp0_units>  (4) 
J/(mol*K)

>  <CpInf_value>  (4) 
133.031552

>  <CpInf_units>  (4) 
J/(mol*K)

>  <Tmin_value>  (4) 
10.0

>  <Tmin_units>  (4) 
K

>  <Tmax_value>  (4) 
3000.0

>  <Tmax_units>  (4) 
K

>  <polynomials>  (4) 
[{"name": "polynomial1", "class": "NASAPolynomial", "Tmin_value": 10.0, "Tmin_units": "K", "Tmax_value": 545.4322858033976, "Tmax_units": "K", "coeffs": [3.9499603218219184, 0.003017565134064686, 5.5663880593738125e-05, -1.145891938777454e-07, 7.087527216200762e-11, -36616690.41912999, 5.464661756584002]}, {"name": "polynomial2", "class": "NASAPolynomial", "Tmin_value": 545.4322858033976, "Tmin_units": "K", "Tmax_value": 3000.0, "Tmax_units": "K", "coeffs": [3.789373911177466, 0.015460066047789113, -9.533910331026645e-06, 2.9656464623318287e-09, -3.6191150968379614e-13, -36616840.46347278, 4.606005615672744]}]

>  <H298_value>  (4) 
-72761.72685205255

>  <H298_units>  (4) 
kcal/mol

>  <S298_value>  (4) 
60.54560432912815

>  <S298_units>  (4) 
cal/(mol*K)

>  <Cp_T_value_list>  (4) 
[14.596350865656005, 16.978505208172123, 18.840244425047544, 20.322925848209742, 22.70561515204646, 24.480922661541676, 27.23477345925829, 28.831290583038445, 29.744408163505042]

>  <Cp_T_units>  (4) 
cal/(mol*K)

>  <T_list>  (4) 
[300.0, 400.0, 500.0, 600.0, 800.0, 1000.0, 1500.0, 2000.0, 2400.0]

>  <T_units>  (4) 
K

>  <yaml_path>  (4) 
/home/calvin/Dropbox/PersonalFolders/Calvin/HAb_Converged/rxn_1832/output/Species/rxn_1832_[CH]=C=C/rxn_1832_CH=C=C.yml

>  <frequencies_cm1>  (4) 
[355.94331707688, 407.51437683008004, 504.51054447508, 653.44172209524, 683.5053838262, 1024.2589293752399, 1075.37676809732, 1445.76135530216, 1997.3313501752, 3133.58394313432, 3230.4359040876, 3427.03082681388]

>  <ZPE_kJmol>  (4) 
107.29725110288972

>  <E_elec_kJmol>  (4) 
-304555.76281753613

>  <E0_minus_Eelec_plus_ZPE_kJmol>  (4) 
0.0

>  <rxn>  (4) 
rxn_1832

>  <species_type>  (4) 
p1

>  <species_folder>  (4) 
rxn_1832_[CH]=C=C

>  <frequencies_cm1_list>  (4) 
[355.94331707688, 407.51437683008004, 504.51054447508, 653.44172209524, 683.5053838262, 1024.2589293752399, 1075.37676809732, 1445.76135530216, 1997.3313501752, 3133.58394313432, 3230.4359040876, 3427.03082681388]

>  <E0_kJmol>  (4) 
-304448

>  <H298_kJmol>  (4) 
-304435

$$$$

     RDKit          3D

  3  2  0  0  0  0  0  0  0  0999 V2000
   -0.0365   -0.2870   -0.2626 C   0  0  0  0  0  3  0  0  0  1  0  0
    1.0501    0.7548    0.1070 S   0  0  0  0  0  0  0  0  0  2  0  0
   -1.0136   -0.5217    0.1556 H   0  0  0  0  0  0  0  0  0  3  0  0
  1  3  1  0
  1  2  1  0
M  RAD  1   1   2
M  END
>  <rmg_smiles>  (5) 
[CH][S]

>  <rmg_adjacency_list>  (5) 
multiplicity 2
1 S u0 p2 c0 {2,S}
2 C u1 p1 c0 {1,S} {3,S}
3 H u0 p0 c0 {2,S}


>  <multiplicity>  (5) 
2

>  <reaction>  (5) 
rxn_1832

>  <type>  (5) 
r2

>  <role_mapnums>  (5) 
{}

>  <role_mapidx>  (5) 
{}

>  <ordered_mapped_smiles>  (5) 
[CH:1]([SH:2])[H:3]

>  <level_of_theory>  (5) 
wb97xd/def2tzvp

>  <lot_method>  (5) 
wb97xd

>  <lot_basis>  (5) 
def2tzvp

>  <spin_multiplicity>  (5) 
2.0

>  <optical_isomers>  (5) 
1.0

>  <modes>  (5) 
IdealGasTranslation(mass=(44.9799, 'amu')),         NonlinearRotor(             inertia = ([0.533362, 24.4981, 25.0314

>  <frequency_value>  (5) 
unknown

>  <frequency_units>  (5) 
unknown

>  <frequency_list>  (5) 
unknown

>  <arkane_path>  (5) 
/home/calvin/Dropbox/PersonalFolders/Calvin/HAb_Converged/rxn_1832/output/Species/rxn_1832_[CH]=S/arkane/output.py

>  <path_exists>  (5) 
True

>  <E0_value>  (5) 
-1146820.6416560595

>  <E0_units>  (5) 
kJ/mol

>  <thermo_class>  (5) 
NASA

>  <Cp0_value>  (5) 
33.257888

>  <Cp0_units>  (5) 
J/(mol*K)

>  <CpInf_value>  (5) 
58.201304

>  <CpInf_units>  (5) 
J/(mol*K)

>  <Tmin_value>  (5) 
10.0

>  <Tmin_units>  (5) 
K

>  <Tmax_value>  (5) 
3000.0

>  <Tmax_units>  (5) 
K

>  <polynomials>  (5) 
[{"name": "polynomial1", "class": "NASAPolynomial", "Tmin_value": 10.0, "Tmin_units": "K", "Tmax_value": 632.9742076304763, "Tmax_units": "K", "coeffs": [4.028693600873181, -0.002252265061729263, 1.905177563389577e-05, -2.792762322013184e-08, 1.35476574444341e-11, -137930664.01595783, 5.418671237072884]}, {"name": "polynomial2", "class": "NASAPolynomial", "Tmin_value": 632.9742076304763, "Tmin_units": "K", "Tmax_value": 3000.0, "Tmax_units": "K", "coeffs": [3.3201891795548124, 0.0045625411286569105, -2.6370436530197204e-06, 7.498493421096638e-10, -8.309383458371985e-14, -137930621.14971584, 8.142883587709516]}]

>  <H298_value>  (5) 
-274094.2879959813

>  <H298_units>  (5) 
kcal/mol

>  <S298_value>  (5) 
56.28887986263342

>  <S298_units>  (5) 
cal/(mol*K)

>  <Cp_T_value_list>  (5) 
[8.790137871294819, 9.41046372469706, 9.978321583083165, 10.451481243757444, 11.192745419425785, 11.74924350227959, 12.600343146329601, 13.04877330980247, 13.29437124246957]

>  <Cp_T_units>  (5) 
cal/(mol*K)

>  <T_list>  (5) 
[300.0, 400.0, 500.0, 600.0, 800.0, 1000.0, 1500.0, 2000.0, 2400.0]

>  <T_units>  (5) 
K

>  <yaml_path>  (5) 
/home/calvin/Dropbox/PersonalFolders/Calvin/HAb_Converged/rxn_1832/output/Species/rxn_1832_[CH]=S/rxn_1832_CH=S.yml

>  <frequencies_cm1>  (5) 
[818.2768377165199, 1232.30798361528, 3110.3391978261197]

>  <ZPE_kJmol>  (5) 
30.86918966350984

>  <E_elec_kJmol>  (5) 
-1146851.510845723

>  <E0_minus_Eelec_plus_ZPE_kJmol>  (5) 
0.0

>  <rxn>  (5) 
rxn_1832

>  <species_type>  (5) 
r0

>  <species_folder>  (5) 
rxn_1832_[CH]=S

>  <frequencies_cm1_list>  (5) 
[818.2768377165199, 1232.30798361528, 3110.3391978261197]

>  <E0_kJmol>  (5) 
-1.14682e+06

>  <H298_kJmol>  (5) 
-1.14681e+06

$$$$
