
     RDKit          3D

  3  2  0  0  0  0  0  0  0  0999 V2000
   -0.0562   -0.0532   -0.0115 O   0  0  0  0  0  0  0  0  0  1  0  0
    0.0823    0.7445    0.5172 H   0  0  0  0  0  0  0  0  0  2  0  0
    0.7636   -0.1671   -0.5115 H   0  0  0  0  0  0  0  0  0  3  0  0
  1  2  1  0
  1  3  1  0
M  END
>  <rmg_smiles>  (1) 
O

>  <rmg_adjacency_list>  (1) 
1 O u0 p2 c0 {2,S} {3,S}
2 H u0 p0 c0 {1,S}
3 H u0 p0 c0 {1,S}


>  <multiplicity>  (1) 
1

>  <reaction>  (1) 
rxn_3120

>  <type>  (1) 
r1h

>  <role_mapnums>  (1) 
{"r1h_a": 1, "r1h_h": 2}

>  <role_mapidx>  (1) 
{"r1h_a": 0, "r1h_h": 1}

>  <ordered_mapped_smiles>  (1) 
[O:1]([H:2])[H:3]

>  <mol_properties>  (1) 
{"0": {"label": "donator", "atom_type": "O2s"}, "1": {"label": "d_hydrogen", "atom_type": "H0"}}

>  <level_of_theory>  (1) 
wb97xd/def2tzvp

>  <lot_method>  (1) 
wb97xd

>  <lot_basis>  (1) 
def2tzvp

>  <spin_multiplicity>  (1) 
1.0

>  <optical_isomers>  (1) 
1.0

>  <modes>  (1) 
IdealGasTranslation(mass=(18.0106, 'amu')),         NonlinearRotor(             inertia = ([0.602336, 1.17002, 1.77235

>  <frequency_value>  (1) 
unknown

>  <frequency_units>  (1) 
unknown

>  <frequency_list>  (1) 
unknown

>  <arkane_path>  (1) 
/home/calvin/Dropbox/PersonalFolders/Calvin/ATLAS_Converged/NonRMG/rxn_3120/output/Species/rxn_3120_r2_O/arkane/output.py

>  <path_exists>  (1) 
True

>  <E0_value>  (1) 
-200631.8610370755

>  <E0_units>  (1) 
kJ/mol

>  <thermo_class>  (1) 
NASA

>  <Cp0_value>  (1) 
33.257888

>  <Cp0_units>  (1) 
J/(mol*K)

>  <CpInf_value>  (1) 
58.201304

>  <CpInf_units>  (1) 
J/(mol*K)

>  <Tmin_value>  (1) 
10.0

>  <Tmin_units>  (1) 
K

>  <Tmax_value>  (1) 
3000.0

>  <Tmax_units>  (1) 
K

>  <polynomials>  (1) 
[{"name": "polynomial1", "class": "NASAPolynomial", "Tmin_value": 10.0, "Tmin_units": "K", "Tmax_value": 775.6045333160237, "Tmax_units": "K", "coeffs": [4.004638062113411, -0.00023500843038991233, 9.298466515978396e-07, 1.270809943533026e-09, -1.0990284049627566e-12, -24130439.408815954, -0.12386080868227042]}, {"name": "polynomial2", "class": "NASAPolynomial", "Tmin_value": 775.6045333160237, "Tmin_units": "K", "Tmax_value": 3000.0, "Tmax_units": "K", "coeffs": [3.5164931288864443, 0.0011161862014920003, 5.72263715725133e-07, -3.6061524190156005e-10, 5.1754206889388045e-14, -24130328.60724045, 2.333259348016681]}]

>  <H298_value>  (1) 
-47949.795051442925

>  <H298_units>  (1) 
kcal/mol

>  <S298_value>  (1) 
45.0524244619197

>  <S298_units>  (1) 
cal/(mol*K)

>  <Cp_T_value_list>  (1) 
[8.034735862124398, 8.172599094888762, 8.365657426635618, 8.605475867028938, 9.165501902768652, 9.729526001654678, 10.975927775341994, 11.885612780369655, 12.367408046918815]

>  <Cp_T_units>  (1) 
cal/(mol*K)

>  <T_list>  (1) 
[300.0, 400.0, 500.0, 600.0, 800.0, 1000.0, 1500.0, 2000.0, 2400.0]

>  <T_units>  (1) 
K

>  <yaml_path>  (1) 
/home/calvin/Dropbox/PersonalFolders/Calvin/ATLAS_Converged/NonRMG/rxn_3120/output/Species/rxn_3120_r2_O/rxn_3120_r2_O.yml

>  <frequencies_cm1>  (1) 
[1605.0960156821197, 3829.7657818612397, 3938.29848484384]

>  <ZPE_kJmol>  (1) 
56.06396479185102

>  <E_elec_kJmol>  (1) 
-200687.92500186732

>  <E0_minus_Eelec_plus_ZPE_kJmol>  (1) 
0.0

>  <rxn>  (1) 
rxn_3120

>  <species_type>  (1) 
r1

>  <species_folder>  (1) 
rxn_3120_r2_O

>  <frequencies_cm1_list>  (1) 
[1605.0960156821197, 3829.7657818612397, 3938.29848484384]

>  <E0_kJmol>  (1) 
-200632

>  <H298_kJmol>  (1) 
-200622

$$$$

     RDKit          3D

  7  7  0  0  0  0  0  0  0  0999 V2000
    0.0876   -1.2660    1.5533 N   0  0  0  0  0  0  0  0  0  1  0  0
    0.0251   -0.5011    0.5709 C   0  0  0  0  0  0  0  0  0  2  0  0
    0.1836    0.8461    0.6533 O   0  0  0  0  0  0  0  0  0  3  0  0
    0.0576    1.3438   -0.6242 N   0  0  0  0  0  0  0  0  0  4  0  0
   -0.1515    0.4366   -1.4128 N   0  0  0  0  0  0  0  0  0  5  0  0
   -0.1894   -0.7721   -0.7435 O   0  0  0  0  0  0  0  0  0  6  0  0
   -0.1032   -2.2720    1.3717 H   0  0  0  0  0  0  0  0  0  7  0  0
  1  2  1  0
  1  7  1  0
  2  3  1  0
  2  6  1  0
  3  4  1  0
  4  5  1  0
  5  6  1  0
M  END
>  <rmg_smiles>  (2) 
[NH][C]1O[N][N]O1

>  <rmg_adjacency_list>  (2) 
1 O u0 p2 c0 {3,S} {6,S}
2 O u0 p2 c0 {4,S} {6,S}
3 N u0 p1 c0 {1,S} {4,S}
4 N u0 p1 c0 {2,S} {3,S}
5 N u0 p1 c0 {6,S} {7,S}
6 C u0 p0 c0 {1,S} {2,S} {5,S}
7 H u0 p0 c0 {5,S}


>  <multiplicity>  (2) 
1

>  <reaction>  (2) 
rxn_3120

>  <type>  (2) 
r2h

>  <role_mapnums>  (2) 
{"r2h_a": 1, "r2h_h": 7}

>  <role_mapidx>  (2) 
{"r2h_a": 0, "r2h_h": 6}

>  <ordered_mapped_smiles>  (2) 
[NH:1]([CH:2]1[O:3][NH:4][NH:5][O:6]1)[H:7]

>  <mol_properties>  (2) 
{"0": {"label": "acceptor", "atom_type": "N3s"}, "6": {"label": "a_hydrogen", "atom_type": "H0"}}

>  <level_of_theory>  (2) 
wb97xd/def2tzvp

>  <lot_method>  (2) 
wb97xd

>  <lot_basis>  (2) 
def2tzvp

>  <spin_multiplicity>  (2) 
1.0

>  <optical_isomers>  (2) 
1.0

>  <modes>  (2) 
IdealGasTranslation(mass=(87.0069, 'amu')),         NonlinearRotor(             inertia = ([48.8575, 120.721, 169.578

>  <frequency_value>  (2) 
unknown

>  <frequency_units>  (2) 
unknown

>  <frequency_list>  (2) 
unknown

>  <arkane_path>  (2) 
/home/calvin/Dropbox/PersonalFolders/Calvin/ATLAS_Converged/NonRMG/rxn_3120/output/Species/rxn_3120_p1_N=c1onno1/arkane/output.py

>  <path_exists>  (2) 
True

>  <E0_value>  (2) 
-927513.3956974436

>  <E0_units>  (2) 
kJ/mol

>  <thermo_class>  (2) 
NASA

>  <Cp0_value>  (2) 
33.257888

>  <Cp0_units>  (2) 
J/(mol*K)

>  <CpInf_value>  (2) 
157.97496800000002

>  <CpInf_units>  (2) 
J/(mol*K)

>  <Tmin_value>  (2) 
10.0

>  <Tmin_units>  (2) 
K

>  <Tmax_value>  (2) 
3000.0

>  <Tmax_units>  (2) 
K

>  <polynomials>  (2) 
[{"name": "polynomial1", "class": "NASAPolynomial", "Tmin_value": 10.0, "Tmin_units": "K", "Tmax_value": 594.5510705426203, "Tmax_units": "K", "coeffs": [4.064128165333628, -0.006464132682369532, 0.00012609118943386684, -2.2452471871589397e-07, 1.2482881080850414e-10, -111554092.36102824, 9.73736041625877]}, {"name": "polynomial2", "class": "NASAPolynomial", "Tmin_value": 594.5510705426203, "Tmin_units": "K", "Tmax_value": 3000.0, "Tmax_units": "K", "coeffs": [2.6619435988700717, 0.02700063330274151, -1.8966063744434276e-05, 6.109629991067157e-09, -7.351884988814937e-13, -111554350.36753283, 12.201082878024012]}]

>  <H298_value>  (2) 
-221677.73393283132

>  <H298_units>  (2) 
kcal/mol

>  <S298_value>  (2) 
69.21240690289005

>  <S298_units>  (2) 
cal/(mol*K)

>  <Cp_T_value_list>  (2) 
[16.736335365541446, 20.824137553247738, 24.027452944596273, 26.348252322457366, 29.711055843773885, 31.936305555783512, 34.552273976473494, 35.596788664173474, 36.33939231381346]

>  <Cp_T_units>  (2) 
cal/(mol*K)

>  <T_list>  (2) 
[300.0, 400.0, 500.0, 600.0, 800.0, 1000.0, 1500.0, 2000.0, 2400.0]

>  <T_units>  (2) 
K

>  <yaml_path>  (2) 
/home/calvin/Dropbox/PersonalFolders/Calvin/ATLAS_Converged/NonRMG/rxn_3120/output/Species/rxn_3120_p1_N=c1onno1/rxn_3120_p1_N=c1onno1.yml

>  <frequencies_cm1>  (2) 
[208.89369343439998, 445.44073675243993, 644.52150816456, 714.2214091625599, 757.75122910604, 783.81143839544, 819.0802749989599, 941.40875148944, 996.4545058145599, 1049.54316932348, 1062.20589025356, 1273.50302854996, 1598.9500638207198, 1829.7357064552798, 3558.0254387782]

>  <ZPE_kJmol>  (2) 
99.78979924741076

>  <E_elec_kJmol>  (2) 
-927613.1854966908

>  <E0_minus_Eelec_plus_ZPE_kJmol>  (2) 
0.0

>  <rxn>  (2) 
rxn_3120

>  <species_type>  (2) 
p0

>  <species_folder>  (2) 
rxn_3120_p1_N=c1onno1

>  <frequencies_cm1_list>  (2) 
[208.89369343439998, 445.44073675243993, 644.52150816456, 714.2214091625599, 757.75122910604, 783.81143839544, 819.0802749989599, 941.40875148944, 996.4545058145599, 1049.54316932348, 1062.20589025356, 1273.50302854996, 1598.9500638207198, 1829.7357064552798, 3558.0254387782]

>  <E0_kJmol>  (2) 
-927513

>  <H298_kJmol>  (2) 
-927500

$$$$

     RDKit          3D

  9  8  0  0  0  0  0  0  0  0999 V2000
    0.0760   -0.7084    1.4099 N   0  0  0  0  0  0  0  0  0  1  0  0
    0.0135    0.0565    0.4275 C   0  0  0  0  0  0  0  0  0  2  0  0
    0.1719    1.4037    0.5100 O   0  0  0  0  0  0  0  0  0  3  0  0
    0.0459    1.9014   -0.7676 N   0  0  0  0  0  0  0  0  0  4  0  0
   -0.1631    0.9942   -1.5562 N   0  0  0  0  0  0  0  0  0  5  0  0
   -0.2010   -0.2145   -0.8869 O   0  0  0  0  0  0  0  0  0  6  0  0
   -0.3160   -2.8649    0.5071 O   0  0  0  0  0  1  0  0  0  7  0  0
   -0.1311   -1.7998    1.2129 H   0  0  0  0  0  0  0  0  0  8  0  0
    0.5038   -2.9787    0.0070 H   0  0  0  0  0  0  0  0  0  9  0  0
  1  2  1  0
  1  8  1  0
  2  3  1  0
  2  6  1  0
  3  4  1  0
  4  5  1  0
  5  6  1  0
  7  9  1  0
M  RAD  1   7   2
M  END
>  <rmg_smiles>  (3) 
[NH][C]1O[N][N]O1.[OH]

>  <rmg_adjacency_list>  (3) 
multiplicity 2
1 O u0 p2 c0 {4,S} {7,S}
2 O u0 p2 c0 {5,S} {7,S}
3 O u1 p2 c0 {9,S}
4 N u0 p1 c0 {1,S} {5,S}
5 N u0 p1 c0 {2,S} {4,S}
6 N u0 p1 c0 {7,S} {8,S}
7 C u0 p0 c0 {1,S} {2,S} {6,S}
8 H u0 p0 c0 {6,S}
9 H u0 p0 c0 {3,S}


>  <multiplicity>  (3) 
2

>  <reaction>  (3) 
rxn_3120

>  <type>  (3) 
ts

>  <role_mapnums>  (3) 
{"*2": 8, "*1": 7, "*3": 1, "*0": 2, "*4": 9}

>  <role_mapidx>  (3) 
{"*2": 7, "*1": 6, "*3": 0, "*0": 1, "*4": 8}

>  <ordered_mapped_smiles>  (3) 
[NH:1]([CH:2]1[O:3][NH:4][NH:5][O:6]1)[H:8].[O:7][H:9]

>  <mol_properties>  (3) 
{"0": {"label": "*3", "atom_type": "N3s"}, "1": {"label": "*0", "atom_type": "Cs"}, "6": {"label": "*1", "atom_type": "O2s"}, "7": {"label": "*2", "atom_type": "H0"}, "8": {"label": "*4", "atom_type": "H0"}}

>  <level_of_theory>  (3) 
wb97xd/def2tzvp

>  <lot_method>  (3) 
wb97xd

>  <lot_basis>  (3) 
def2tzvp

>  <spin_multiplicity>  (3) 
2.0

>  <optical_isomers>  (3) 
2.0

>  <modes>  (3) 
IdealGasTranslation(mass=(104.01, 'amu')),         NonlinearRotor(             inertia = ([71.857, 273.688, 344.036

>  <frequency_value>  (3) 
-1215.24

>  <frequency_units>  (3) 
cm^-1

>  <frequency_list>  (3) 
unknown

>  <arkane_path>  (3) 
/home/calvin/Dropbox/PersonalFolders/Calvin/ATLAS_Converged/NonRMG/rxn_3120/output/rxns/TS0/arkane/output.py

>  <path_exists>  (3) 
True

>  <E0_value>  (3) 
-1126350.0

>  <E0_units>  (3) 
kJ/mol

>  <thermo_class>  (3) 
unknown

>  <Cp0_value>  (3) 
unknown

>  <Cp0_units>  (3) 
unknown

>  <CpInf_value>  (3) 
unknown

>  <CpInf_units>  (3) 
unknown

>  <Tmin_value>  (3) 
unknown

>  <Tmin_units>  (3) 
unknown

>  <Tmax_value>  (3) 
unknown

>  <Tmax_units>  (3) 
unknown

>  <polynomials>  (3) 
unknown

>  <H298_value>  (3) 
unknown

>  <H298_units>  (3) 
unknown

>  <S298_value>  (3) 
unknown

>  <S298_units>  (3) 
unknown

>  <Cp_T_value_list>  (3) 
unknown

>  <Cp_T_units>  (3) 
unknown

>  <T_list>  (3) 
unknown

>  <T_units>  (3) 
unknown

>  <yaml_path>  (3) 
unknown

>  <frequencies_cm1>  (3) 
unknown

>  <ZPE_kJmol>  (3) 
unknown

>  <E_elec_kJmol>  (3) 
unknown

>  <E0_minus_Eelec_plus_ZPE_kJmol>  (3) 
unknown

>  <rxn>  (3) 
unknown

>  <species_type>  (3) 
unknown

>  <species_folder>  (3) 
unknown

>  <frequencies_cm1_list>  (3) 
[]

>  <ts_imag_freq_cm1>  (3) 
-1230.0039

>  <ts_freq_out_path>  (3) 
/home/calvin/Dropbox/PersonalFolders/Calvin/ATLAS_Converged/NonRMG/rxn_3120/output/rxns/TS0/geometry/freq.out

>  <E0_kJmol>  (3) 
-1.12635e+06

>  <H298_kJmol>  (3) 
unknown

$$$$

     RDKit          3D

  2  1  0  0  0  0  0  0  0  0999 V2000
    0.0000    0.0000    0.4855 O   0  0  0  0  0  1  0  0  0  1  0  0
    0.0000    0.0000   -0.4855 H   0  0  0  0  0  0  0  0  0  2  0  0
  1  2  1  0
M  RAD  1   1   2
M  END
>  <rmg_smiles>  (4) 
[OH]

>  <rmg_adjacency_list>  (4) 
multiplicity 2
1 O u1 p2 c0 {2,S}
2 H u0 p0 c0 {1,S}


>  <multiplicity>  (4) 
2

>  <reaction>  (4) 
rxn_3120

>  <type>  (4) 
r1

>  <role_mapnums>  (4) 
{}

>  <role_mapidx>  (4) 
{}

>  <ordered_mapped_smiles>  (4) 
[O:1][H:2]

>  <level_of_theory>  (4) 
wb97xd/def2tzvp

>  <lot_method>  (4) 
wb97xd

>  <lot_basis>  (4) 
def2tzvp

>  <spin_multiplicity>  (4) 
2.0

>  <optical_isomers>  (4) 
1.0

>  <modes>  (4) 
IdealGasTranslation(mass=(17.0027, 'amu')),         LinearRotor(inertia=(0.893825, 'amu*angstrom^2'), symmetry=1),         HarmonicOscillator(frequencies=([3770.81

>  <frequency_value>  (4) 
unknown

>  <frequency_units>  (4) 
unknown

>  <frequency_list>  (4) 
unknown

>  <arkane_path>  (4) 
/home/calvin/Dropbox/PersonalFolders/Calvin/ATLAS_Converged/NonRMG/rxn_3120/output/Species/rxn_3120_p2_sbr-OH-sbr/arkane/output.py

>  <path_exists>  (4) 
True

>  <E0_value>  (4) 
-198836.1093764492

>  <E0_units>  (4) 
kJ/mol

>  <thermo_class>  (4) 
NASA

>  <Cp0_value>  (4) 
29.100652

>  <Cp0_units>  (4) 
J/(mol*K)

>  <CpInf_value>  (4) 
37.415124

>  <CpInf_units>  (4) 
J/(mol*K)

>  <Tmin_value>  (4) 
10.0

>  <Tmin_units>  (4) 
K

>  <Tmax_value>  (4) 
3000.0

>  <Tmax_units>  (4) 
K

>  <polynomials>  (4) 
[{"name": "polynomial1", "class": "NASAPolynomial", "Tmin_value": 10.0, "Tmin_units": "K", "Tmax_value": 985.6219051098949, "Tmax_units": "K", "coeffs": [3.496867604314472, 0.0001833472557371578, -9.927740947192295e-07, 1.5593900231123363e-09, -6.051459039423422e-13, -23914460.03620676, 1.4722274406577402]}, {"name": "polynomial2", "class": "NASAPolynomial", "Tmin_value": 985.6219051098949, "Tmin_units": "K", "Tmax_value": 3000.0, "Tmax_units": "K", "coeffs": [3.453933156167455, -0.00029916362157125824, 7.410522713245767e-07, -2.8941103306339544e-10, 3.5276148505692374e-14, -23914419.672581118, 1.8405673087181547]}]

>  <H298_value>  (4) 
-47520.89533020024

>  <H298_units>  (4) 
kcal/mol

>  <S298_value>  (4) 
42.56065351108258

>  <S298_units>  (4) 
cal/(mol*K)

>  <Cp_T_value_list>  (4) 
[6.954674207472737, 6.946621880758451, 6.950155063576729, 6.970879197233411, 7.071891483793281, 7.2367839245792185, 7.699190340115086, 8.085834174440727, 8.294523170832974]

>  <Cp_T_units>  (4) 
cal/(mol*K)

>  <T_list>  (4) 
[300.0, 400.0, 500.0, 600.0, 800.0, 1000.0, 1500.0, 2000.0, 2400.0]

>  <T_units>  (4) 
K

>  <yaml_path>  (4) 
/home/calvin/Dropbox/PersonalFolders/Calvin/ATLAS_Converged/NonRMG/rxn_3120/output/Species/rxn_3120_p2_sbr-OH-sbr/rxn_3120_p2_sbr-OH-sbr.yml

>  <frequencies_cm1>  (4) 
[3725.55927963024]

>  <ZPE_kJmol>  (4) 
22.28379948603074

>  <E_elec_kJmol>  (4) 
-198858.39317593523

>  <E0_minus_Eelec_plus_ZPE_kJmol>  (4) 
0.0

>  <rxn>  (4) 
rxn_3120

>  <species_type>  (4) 
p1

>  <species_folder>  (4) 
rxn_3120_p2_sbr-OH-sbr

>  <frequencies_cm1_list>  (4) 
[3725.55927963024]

>  <E0_kJmol>  (4) 
-198836

>  <H298_kJmol>  (4) 
-198827

$$$$

     RDKit          3D

  6  6  0  0  0  0  0  0  0  0999 V2000
    1.9594    0.0134   -0.3734 N   0  0  0  0  0  2  0  0  0  1  0  0
    0.7437    0.0051   -0.0788 C   0  0  0  0  0  0  0  0  0  2  0  0
   -0.0745    1.0868    0.0233 O   0  0  0  0  0  0  0  0  0  3  0  0
   -1.3223    0.5972    0.3682 N   0  0  0  0  0  0  0  0  0  4  0  0
   -1.2899   -0.6150    0.4676 N   0  0  0  0  0  0  0  0  0  5  0  0
   -0.0165   -1.0874    0.2015 O   0  0  0  0  0  0  0  0  0  6  0  0
  1  2  1  0
  2  3  1  0
  2  6  1  0
  3  4  1  0
  4  5  1  0
  5  6  1  0
M  RAD  1   1   2
M  END
>  <rmg_smiles>  (5) 
[N][C]1O[N][N]O1

>  <rmg_adjacency_list>  (5) 
multiplicity 2
1 O u0 p2 c0 {3,S} {6,S}
2 O u0 p2 c0 {4,S} {6,S}
3 N u0 p1 c0 {1,S} {4,S}
4 N u0 p1 c0 {2,S} {3,S}
5 N u1 p2 c0 {6,S}
6 C u0 p0 c0 {1,S} {2,S} {5,S}


>  <multiplicity>  (5) 
2

>  <reaction>  (5) 
rxn_3120

>  <type>  (5) 
r2

>  <role_mapnums>  (5) 
{}

>  <role_mapidx>  (5) 
{}

>  <ordered_mapped_smiles>  (5) 
[NH:1][CH:2]1[O:3][NH:4][NH:5][O:6]1

>  <level_of_theory>  (5) 
wb97xd/def2tzvp

>  <lot_method>  (5) 
wb97xd

>  <lot_basis>  (5) 
def2tzvp

>  <spin_multiplicity>  (5) 
2.0

>  <optical_isomers>  (5) 
1.0

>  <modes>  (5) 
IdealGasTranslation(mass=(85.999, 'amu')),         NonlinearRotor(             inertia = ([48.4503, 114.569, 163.019

>  <frequency_value>  (5) 
unknown

>  <frequency_units>  (5) 
unknown

>  <frequency_list>  (5) 
unknown

>  <arkane_path>  (5) 
/home/calvin/Dropbox/PersonalFolders/Calvin/ATLAS_Converged/NonRMG/rxn_3120/output/Species/rxn_3120_r1_sbr-N-sbr=c1onno1/arkane/output.py

>  <path_exists>  (5) 
True

>  <E0_value>  (5) 
-925766.1233507326

>  <E0_units>  (5) 
kJ/mol

>  <thermo_class>  (5) 
NASA

>  <Cp0_value>  (5) 
33.257888

>  <Cp0_units>  (5) 
J/(mol*K)

>  <CpInf_value>  (5) 
133.031552

>  <CpInf_units>  (5) 
J/(mol*K)

>  <Tmin_value>  (5) 
10.0

>  <Tmin_units>  (5) 
K

>  <Tmax_value>  (5) 
3000.0

>  <Tmax_units>  (5) 
K

>  <polynomials>  (5) 
[{"name": "polynomial1", "class": "NASAPolynomial", "Tmin_value": 10.0, "Tmin_units": "K", "Tmax_value": 616.0864984642515, "Tmax_units": "K", "coeffs": [3.94812055354869, 0.002870632430470056, 6.601813711413239e-05, -1.1874693803665765e-07, 6.345849341330536e-11, -111343943.32258263, 10.070268148343539]}, {"name": "polynomial2", "class": "NASAPolynomial", "Tmin_value": 616.0864984642515, "Tmin_units": "K", "Tmax_value": 3000.0, "Tmax_units": "K", "coeffs": [2.4544566455499175, 0.02517036301302165, -1.8957852591200607e-05, 6.406820502487897e-09, -7.999640326918053e-13, -111343998.43927236, 14.611873401720596]}]

>  <H298_value>  (5) 
-221260.06538606877

>  <H298_units>  (5) 
kcal/mol

>  <S298_value>  (5) 
70.40173140431875

>  <S298_units>  (5) 
cal/(mol*K)

>  <Cp_T_value_list>  (5) 
[16.01447807468723, 19.24412536395936, 21.88065311931888, 23.870148628394773, 26.6491311769416, 28.365034926557463, 30.06252774055981, 30.64056177383133, 31.185424153668]

>  <Cp_T_units>  (5) 
cal/(mol*K)

>  <T_list>  (5) 
[300.0, 400.0, 500.0, 600.0, 800.0, 1000.0, 1500.0, 2000.0, 2400.0]

>  <T_units>  (5) 
K

>  <yaml_path>  (5) 
/home/calvin/Dropbox/PersonalFolders/Calvin/ATLAS_Converged/NonRMG/rxn_3120/output/Species/rxn_3120_r1_sbr-N-sbr=c1onno1/rxn_3120_r1_sbr-N-sbr=c1onno1.yml

>  <frequencies_cm1>  (5) 
[203.66105062056, 421.06293886643994, 625.6235645639199, 691.3131461350399, 746.0704870767199, 784.21659052932, 934.89884940608, 1008.3206564475199, 1041.0761764239198, 1163.2398452667198, 1617.8480074213599, 1768.29678879724]

>  <ZPE_kJmol>  (5) 
65.82829353267302

>  <E_elec_kJmol>  (5) 
-925831.9516442652

>  <E0_minus_Eelec_plus_ZPE_kJmol>  (5) 
0.0

>  <rxn>  (5) 
rxn_3120

>  <species_type>  (5) 
r0

>  <species_folder>  (5) 
rxn_3120_r1_sbr-N-sbr=c1onno1

>  <frequencies_cm1_list>  (5) 
[203.66105062056, 421.06293886643994, 625.6235645639199, 691.3131461350399, 746.0704870767199, 784.21659052932, 934.89884940608, 1008.3206564475199, 1041.0761764239198, 1163.2398452667198, 1617.8480074213599, 1768.29678879724]

>  <E0_kJmol>  (5) 
-925766

>  <H298_kJmol>  (5) 
-925752

$$$$
