
     RDKit          3D

  7  6  0  0  0  0  0  0  0  0999 V2000
    0.0829   -0.4633   -1.1719 C   0  0  0  0  0  0  0  0  0  1  0  0
    0.1090   -0.3875    0.1597 C   0  0  0  0  0  0  0  0  0  2  0  0
   -0.1913    0.6741    0.9029 O   0  0  0  0  0  0  0  0  0  3  0  0
    0.3453   -1.3888   -1.6629 H   0  0  0  0  0  0  0  0  0  4  0  0
   -0.1445    0.3996   -1.7852 H   0  0  0  0  0  0  0  0  0  5  0  0
    0.4161   -1.2411    0.7622 H   0  0  0  0  0  0  0  0  0  6  0  0
    0.0802    1.4971    0.4898 H   0  0  0  0  0  0  0  0  0  7  0  0
  1  5  1  0
  1  4  1  0
  1  2  1  0
  2  3  1  0
  2  6  1  0
  3  7  1  0
M  END
>  <rmg_smiles>  (1) 
[CH2][CH]O

>  <rmg_adjacency_list>  (1) 
1 O u0 p2 c0 {2,S} {7,S}
2 C u0 p0 c0 {1,S} {3,S} {4,S}
3 C u0 p0 c0 {2,S} {5,S} {6,S}
4 H u0 p0 c0 {2,S}
5 H u0 p0 c0 {3,S}
6 H u0 p0 c0 {3,S}
7 H u0 p0 c0 {1,S}


>  <multiplicity>  (1) 
1

>  <reaction>  (1) 
rxn_690

>  <type>  (1) 
r1h

>  <role_mapnums>  (1) 
{"r1h_a": 3, "r1h_h": 7}

>  <role_mapidx>  (1) 
{"r1h_a": 2, "r1h_h": 6}

>  <ordered_mapped_smiles>  (1) 
[CH:1]([CH:2]([O:3][H:7])[H:6])([H:4])[H:5]

>  <mol_properties>  (1) 
{"2": {"label": "donator", "atom_type": "O2s"}, "6": {"label": "d_hydrogen", "atom_type": "H0"}}

>  <level_of_theory>  (1) 
wb97xd/def2tzvp

>  <lot_method>  (1) 
wb97xd

>  <lot_basis>  (1) 
def2tzvp

>  <spin_multiplicity>  (1) 
1.0

>  <optical_isomers>  (1) 
1.0

>  <modes>  (1) 
IdealGasTranslation(mass=(44.0262, 'amu')),         NonlinearRotor(             inertia = ([8.2807, 47.382, 55.6627

>  <frequency_value>  (1) 
unknown

>  <frequency_units>  (1) 
unknown

>  <frequency_list>  (1) 
unknown

>  <arkane_path>  (1) 
/home/calvin/Dropbox/PersonalFolders/Calvin/HAb_Converged/rxn_690/output/Species/rxn_690_C=CO/arkane/output.py

>  <path_exists>  (1) 
True

>  <E0_value>  (1) 
-403721.5747116701

>  <E0_units>  (1) 
kJ/mol

>  <thermo_class>  (1) 
NASA

>  <Cp0_value>  (1) 
33.257888

>  <Cp0_units>  (1) 
J/(mol*K)

>  <CpInf_value>  (1) 
157.97496800000002

>  <CpInf_units>  (1) 
J/(mol*K)

>  <Tmin_value>  (1) 
10.0

>  <Tmin_units>  (1) 
K

>  <Tmax_value>  (1) 
3000.0

>  <Tmax_units>  (1) 
K

>  <polynomials>  (1) 
[{"name": "polynomial1", "class": "NASAPolynomial", "Tmin_value": 10.0, "Tmin_units": "K", "Tmax_value": 555.2056569165115, "Tmax_units": "K", "coeffs": [4.097338498876175, -0.00864469935446395, 0.00010145195156182729, -1.7128067915122144e-07, 9.529325863832859e-11, -48556489.371090114, 6.758025660711023]}, {"name": "polynomial2", "class": "NASAPolynomial", "Tmin_value": 555.2056569165115, "Tmin_units": "K", "Tmax_value": 3000.0, "Tmax_units": "K", "coeffs": [1.4147655229747191, 0.022233618372519234, -1.3181078214137359e-05, 3.84008672844003e-09, -4.348743997465106e-13, -48556369.536413625, 16.518037716160666]}]

>  <H298_value>  (1) 
-96488.9113631066

>  <H298_units>  (1) 
kcal/mol

>  <S298_value>  (1) 
61.02009452592069

>  <S298_units>  (1) 
cal/(mol*K)

>  <Cp_T_value_list>  (1) 
[13.477038533015893, 16.591812971902087, 19.243552297445156, 21.42774445315535, 24.946933384852407, 27.567557974201097, 31.530028162453263, 33.624314656418505, 34.79540785772666]

>  <Cp_T_units>  (1) 
cal/(mol*K)

>  <T_list>  (1) 
[300.0, 400.0, 500.0, 600.0, 800.0, 1000.0, 1500.0, 2000.0, 2400.0]

>  <T_units>  (1) 
K

>  <yaml_path>  (1) 
/home/calvin/Dropbox/PersonalFolders/Calvin/HAb_Converged/rxn_690/output/Species/rxn_690_C=CO/rxn_690_C=CO.yml

>  <frequencies_cm1>  (1) 
[455.30172767195995, 498.1036471715199, 716.6317210098798, 841.3430414064, 964.0904040014, 1001.73521752564, 1127.5727235146398, 1324.1539122702798, 1349.32141346808, 1440.0754914571999, 1708.66388827836, 3129.0998017203597, 3174.0098857131597, 3232.0839805644, 3817.6661537273994]

>  <ZPE_kJmol>  (1) 
148.2164782013167

>  <E_elec_kJmol>  (1) 
-403869.7911898714

>  <E0_minus_Eelec_plus_ZPE_kJmol>  (1) 
0.0

>  <rxn>  (1) 
rxn_690

>  <species_type>  (1) 
r1

>  <species_folder>  (1) 
rxn_690_C=CO

>  <frequencies_cm1_list>  (1) 
[455.30172767195995, 498.1036471715199, 716.6317210098798, 841.3430414064, 964.0904040014, 1001.73521752564, 1127.5727235146398, 1324.1539122702798, 1349.32141346808, 1440.0754914571999, 1708.66388827836, 3129.0998017203597, 3174.0098857131597, 3232.0839805644, 3817.6661537273994]

>  <E0_kJmol>  (1) 
-403722

>  <H298_kJmol>  (1) 
-403710

$$$$

     RDKit          3D

  2  1  0  0  0  0  0  0  0  0999 V2000
    0.2216    0.3847   -0.1875 H   0  0  0  0  0  0  0  0  0  1  0  0
   -0.1187   -0.2060    0.1004 H   0  0  0  0  0  0  0  0  0  2  0  0
  1  2  1  0
M  END
>  <rmg_smiles>  (2) 
[H][H]

>  <rmg_adjacency_list>  (2) 
1 H u0 p0 c0 {2,S}
2 H u0 p0 c0 {1,S}


>  <multiplicity>  (2) 
1

>  <reaction>  (2) 
rxn_690

>  <type>  (2) 
r2h

>  <role_mapnums>  (2) 
{"r2h_a": 1, "r2h_h": 2}

>  <role_mapidx>  (2) 
{"r2h_a": 0, "r2h_h": 1}

>  <ordered_mapped_smiles>  (2) 
[H:1][H:2]

>  <mol_properties>  (2) 
{"0": {"label": "acceptor", "atom_type": "H0"}, "1": {"label": "a_hydrogen", "atom_type": "H0"}}

>  <level_of_theory>  (2) 
wb97xd/def2tzvp

>  <lot_method>  (2) 
wb97xd

>  <lot_basis>  (2) 
def2tzvp

>  <spin_multiplicity>  (2) 
1.0

>  <optical_isomers>  (2) 
1.0

>  <modes>  (2) 
IdealGasTranslation(mass=(2.01565, 'amu')),         LinearRotor(inertia=(0.279051, 'amu*angstrom^2'), symmetry=2),         HarmonicOscillator(frequencies=([4384.98

>  <frequency_value>  (2) 
unknown

>  <frequency_units>  (2) 
unknown

>  <frequency_list>  (2) 
unknown

>  <arkane_path>  (2) 
/home/calvin/Dropbox/PersonalFolders/Calvin/HAb_Converged/rxn_690/output/Species/rxn_690_[H][H]/arkane/output.py

>  <path_exists>  (2) 
True

>  <E0_value>  (2) 
-3062.16965545063

>  <E0_units>  (2) 
kJ/mol

>  <thermo_class>  (2) 
NASA

>  <Cp0_value>  (2) 
29.100652

>  <Cp0_units>  (2) 
J/(mol*K)

>  <CpInf_value>  (2) 
37.415124

>  <CpInf_units>  (2) 
J/(mol*K)

>  <Tmin_value>  (2) 
10.0

>  <Tmin_units>  (2) 
K

>  <Tmax_value>  (2) 
3000.0

>  <Tmax_units>  (2) 
K

>  <polynomials>  (2) 
[{"name": "polynomial1", "class": "NASAPolynomial", "Tmin_value": 10.0, "Tmin_units": "K", "Tmax_value": 609.8839760798177, "Tmax_units": "K", "coeffs": [3.498630427760662, 8.118128927195725e-05, -2.559636751505851e-07, 1.12469612407288e-11, 3.0815171130046294e-13, -368293.8823611774, -4.277290681887199]}, {"name": "polynomial2", "class": "NASAPolynomial", "Tmin_value": 609.8839760798177, "Tmin_units": "K", "Tmax_value": 3000.0, "Tmax_units": "K", "coeffs": [3.686867766797846, -0.0007828622299568348, 9.578139376048542e-07, -3.193665739780837e-10, 3.533006631714403e-14, -368323.7341208647, -5.148841965058497]}]

>  <H298_value>  (2) 
-729.8011438890577

>  <H298_units>  (2) 
kcal/mol

>  <S298_value>  (2) 
31.136082854374543

>  <S298_units>  (2) 
cal/(mol*K)

>  <Cp_T_value_list>  (2) 
[6.960683160805141, 6.952753142081975, 6.947066275630451, 6.950370161364484, 7.003977696739648, 7.10979357060473, 7.489089863592967, 7.874797646413975, 8.112273708870758]

>  <Cp_T_units>  (2) 
cal/(mol*K)

>  <T_list>  (2) 
[300.0, 400.0, 500.0, 600.0, 800.0, 1000.0, 1500.0, 2000.0, 2400.0]

>  <T_units>  (2) 
K

>  <yaml_path>  (2) 
/home/calvin/Dropbox/PersonalFolders/Calvin/HAb_Converged/rxn_690/output/Species/rxn_690_[H][H]/rxn_690_HH.yml

>  <frequencies_cm1>  (2) 
[4384.97527895388]

>  <ZPE_kJmol>  (2) 
26.22798418526521

>  <E_elec_kJmol>  (2) 
-3088.3976396358958

>  <E0_minus_Eelec_plus_ZPE_kJmol>  (2) 
0.0

>  <rxn>  (2) 
rxn_690

>  <species_type>  (2) 
p0

>  <species_folder>  (2) 
rxn_690_[H][H]

>  <frequencies_cm1_list>  (2) 
[4384.97527895388]

>  <E0_kJmol>  (2) 
-3062.17

>  <H298_kJmol>  (2) 
-3053.49

$$$$

     RDKit          3D

  8  6  0  0  0  0  0  0  0  0999 V2000
    0.4114    2.3709   -0.0145 H   0  0  0  0  0 15  0  0  0  1  0  0
   -0.0833   -0.5233   -1.2187 C   0  0  0  0  0  0  0  0  0  2  0  0
   -0.0571   -0.4476    0.1129 C   0  0  0  0  0  0  0  0  0  3  0  0
   -0.3575    0.6141    0.8561 O   0  0  0  0  0  0  0  0  0  4  0  0
    0.1791   -1.4489   -1.7097 H   0  0  0  0  0  0  0  0  0  5  0  0
   -0.3107    0.3396   -1.8320 H   0  0  0  0  0  0  0  0  0  6  0  0
    0.2499   -1.3011    0.7154 H   0  0  0  0  0  0  0  0  0  7  0  0
   -0.0318    1.6016    0.3605 H   0  0  0  0  0  0  0  0  0  8  0  0
  2  5  1  0
  2  6  1  0
  2  3  1  0
  3  4  1  0
  3  7  1  0
  4  8  1  0
M  END
>  <rmg_smiles>  (3) 
[CH2][CH]O.[H]

>  <rmg_adjacency_list>  (3) 
multiplicity 2
1 O u0 p2 c0 {2,S} {7,S}
2 C u0 p0 c0 {1,S} {3,S} {4,S}
3 C u0 p0 c0 {2,S} {5,S} {6,S}
4 H u0 p0 c0 {2,S}
5 H u0 p0 c0 {3,S}
6 H u0 p0 c0 {3,S}
7 H u0 p0 c0 {1,S}
8 H u1 p0 c0


>  <multiplicity>  (3) 
2

>  <reaction>  (3) 
rxn_690

>  <type>  (3) 
ts

>  <role_mapnums>  (3) 
{"*2": 8, "*1": 4, "*3": 1, "*0": null, "*4": 3}

>  <role_mapidx>  (3) 
{"*2": 7, "*1": 3, "*3": 0, "*4": 2}

>  <ordered_mapped_smiles>  (3) 
[H:1].[CH:2]([CH:3]([O:4][H:8])[H:7])([H:5])[H:6]

>  <mol_properties>  (3) 
{"0": {"label": "*3", "atom_type": "H0"}, "2": {"label": "*4", "atom_type": "Cs"}, "3": {"label": "*1", "atom_type": "O2s"}, "7": {"label": "*2", "atom_type": "H0"}}

>  <level_of_theory>  (3) 
wb97xd/def2tzvp

>  <lot_method>  (3) 
wb97xd

>  <lot_basis>  (3) 
def2tzvp

>  <spin_multiplicity>  (3) 
2.0

>  <optical_isomers>  (3) 
2.0

>  <modes>  (3) 
IdealGasTranslation(mass=(45.034, 'amu')),         NonlinearRotor(             inertia = ([13.2353, 49.7863, 60.8989

>  <frequency_value>  (3) 
-2120.31

>  <frequency_units>  (3) 
cm^-1

>  <frequency_list>  (3) 
unknown

>  <arkane_path>  (3) 
/home/calvin/Dropbox/PersonalFolders/Calvin/HAb_Converged/rxn_690/output/rxns/TS0/arkane/output.py

>  <path_exists>  (3) 
True

>  <E0_value>  (3) 
-404995.0

>  <E0_units>  (3) 
kJ/mol

>  <thermo_class>  (3) 
unknown

>  <Cp0_value>  (3) 
unknown

>  <Cp0_units>  (3) 
unknown

>  <CpInf_value>  (3) 
unknown

>  <CpInf_units>  (3) 
unknown

>  <Tmin_value>  (3) 
unknown

>  <Tmin_units>  (3) 
unknown

>  <Tmax_value>  (3) 
unknown

>  <Tmax_units>  (3) 
unknown

>  <polynomials>  (3) 
unknown

>  <H298_value>  (3) 
unknown

>  <H298_units>  (3) 
unknown

>  <S298_value>  (3) 
unknown

>  <S298_units>  (3) 
unknown

>  <Cp_T_value_list>  (3) 
unknown

>  <Cp_T_units>  (3) 
unknown

>  <T_list>  (3) 
unknown

>  <T_units>  (3) 
unknown

>  <yaml_path>  (3) 
unknown

>  <frequencies_cm1>  (3) 
unknown

>  <ZPE_kJmol>  (3) 
unknown

>  <E_elec_kJmol>  (3) 
unknown

>  <E0_minus_Eelec_plus_ZPE_kJmol>  (3) 
unknown

>  <rxn>  (3) 
unknown

>  <species_type>  (3) 
unknown

>  <species_folder>  (3) 
unknown

>  <frequencies_cm1_list>  (3) 
[]

>  <ts_imag_freq_cm1>  (3) 
-2146.0598

>  <ts_freq_out_path>  (3) 
/home/calvin/Dropbox/PersonalFolders/Calvin/HAb_Converged/rxn_690/output/rxns/TS0/geometry/freq.out

>  <E0_kJmol>  (3) 
-404995

>  <H298_kJmol>  (3) 
unknown

$$$$

     RDKit          3D

  6  5  0  0  0  0  0  0  0  0999 V2000
   -0.7133   -0.0465   -0.1138 C   0  0  0  0  0  0  0  0  0  1  0  0
    0.6837    0.0990    0.1040 C   0  0  0  0  0  0  0  0  0  2  0  0
    1.4284   -0.8504    0.3164 O   0  0  0  0  0  1  0  0  0  3  0  0
   -1.3425    0.8143   -0.2988 H   0  0  0  0  0  0  0  0  0  4  0  0
   -1.1519   -1.0358   -0.0939 H   0  0  0  0  0  0  0  0  0  5  0  0
    1.0889    1.1261    0.0750 H   0  0  0  0  0  0  0  0  0  6  0  0
  1  5  1  0
  1  4  1  0
  1  2  1  0
  2  3  1  0
  2  6  1  0
M  RAD  1   3   2
M  END
>  <rmg_smiles>  (4) 
[CH2][CH][O]

>  <rmg_adjacency_list>  (4) 
multiplicity 2
1 O u1 p2 c0 {3,S}
2 C u0 p0 c0 {3,S} {4,S} {5,S}
3 C u0 p0 c0 {1,S} {2,S} {6,S}
4 H u0 p0 c0 {2,S}
5 H u0 p0 c0 {2,S}
6 H u0 p0 c0 {3,S}


>  <multiplicity>  (4) 
2

>  <reaction>  (4) 
rxn_690

>  <type>  (4) 
r1

>  <role_mapnums>  (4) 
{}

>  <role_mapidx>  (4) 
{}

>  <ordered_mapped_smiles>  (4) 
[CH:1]([CH:2]([O:3])[H:6])([H:4])[H:5]

>  <level_of_theory>  (4) 
wb97xd/def2tzvp

>  <lot_method>  (4) 
wb97xd

>  <lot_basis>  (4) 
def2tzvp

>  <spin_multiplicity>  (4) 
2.0

>  <optical_isomers>  (4) 
1.0

>  <modes>  (4) 
IdealGasTranslation(mass=(43.0184, 'amu')),         NonlinearRotor(             inertia = ([7.46923, 43.7555, 51.2248

>  <frequency_value>  (4) 
unknown

>  <frequency_units>  (4) 
unknown

>  <frequency_list>  (4) 
unknown

>  <arkane_path>  (4) 
/home/calvin/Dropbox/PersonalFolders/Calvin/HAb_Converged/rxn_690/output/Species/rxn_690_C=C[O]/arkane/output.py

>  <path_exists>  (4) 
True

>  <E0_value>  (4) 
-402064.8713042213

>  <E0_units>  (4) 
kJ/mol

>  <thermo_class>  (4) 
NASA

>  <Cp0_value>  (4) 
33.257888

>  <Cp0_units>  (4) 
J/(mol*K)

>  <CpInf_value>  (4) 
133.031552

>  <CpInf_units>  (4) 
J/(mol*K)

>  <Tmin_value>  (4) 
10.0

>  <Tmin_units>  (4) 
K

>  <Tmax_value>  (4) 
3000.0

>  <Tmax_units>  (4) 
K

>  <polynomials>  (4) 
[{"name": "polynomial1", "class": "NASAPolynomial", "Tmin_value": 10.0, "Tmin_units": "K", "Tmax_value": 528.0713723584518, "Tmax_units": "K", "coeffs": [4.069068181720393, -0.006445847334327831, 8.24519976252606e-05, -1.4303373223005544e-07, 8.214673664772e-11, -48357233.95188342, 7.286659191587968]}, {"name": "polynomial2", "class": "NASAPolynomial", "Tmin_value": 528.0713723584518, "Tmin_units": "K", "Tmax_value": 3000.0, "Tmax_units": "K", "coeffs": [1.7695732635792571, 0.01876974415384689, -1.1322603147409724e-05, 3.314768491708994e-09, -3.755982674490112e-13, -48357099.81311182, 15.882697555195485]}]

>  <H298_value>  (4) 
-96093.00709441646

>  <H298_units>  (4) 
kcal/mol

>  <S298_value>  (4) 
61.819845521600215

>  <S298_units>  (4) 
cal/(mol*K)

>  <Cp_T_value_list>  (4) 
[12.637583235282603, 15.166054906543657, 17.31671305522784, 19.122083502158667, 22.022657621394718, 24.156252691896597, 27.29271108597069, 28.86859523774997, 29.72995192031171]

>  <Cp_T_units>  (4) 
cal/(mol*K)

>  <T_list>  (4) 
[300.0, 400.0, 500.0, 600.0, 800.0, 1000.0, 1500.0, 2000.0, 2400.0]

>  <T_units>  (4) 
K

>  <yaml_path>  (4) 
/home/calvin/Dropbox/PersonalFolders/Calvin/HAb_Converged/rxn_690/output/Species/rxn_690_C=C[O]/rxn_690_C=CO.yml

>  <frequencies_cm1>  (4) 
[449.66393272424, 506.48823624724, 754.00185512132, 972.8389432990799, 977.2269469185599, 1153.37198736188, 1391.8692545108001, 1463.54684728096, 1583.9044989846002, 2931.70144171164, 3126.8886324473197, 3242.4599953829197]

>  <ZPE_kJmol>  (4) 
110.97737295072427

>  <E_elec_kJmol>  (4) 
-402175.848677172

>  <E0_minus_Eelec_plus_ZPE_kJmol>  (4) 
0.0

>  <rxn>  (4) 
rxn_690

>  <species_type>  (4) 
p1

>  <species_folder>  (4) 
rxn_690_C=C[O]

>  <frequencies_cm1_list>  (4) 
[449.66393272424, 506.48823624724, 754.00185512132, 972.8389432990799, 977.2269469185599, 1153.37198736188, 1391.8692545108001, 1463.54684728096, 1583.9044989846002, 2931.70144171164, 3126.8886324473197, 3242.4599953829197]

>  <E0_kJmol>  (4) 
-402065

>  <H298_kJmol>  (4) 
-402053

$$$$

     RDKit          3D

  1  0  0  0  0  0  0  0  0  0999 V2000
    0.0000    0.0000    0.0000 H   0  0  0  0  0 15  0  0  0  1  0  0
M  END
>  <rmg_smiles>  (5) 
[H]

>  <rmg_adjacency_list>  (5) 
multiplicity 2
1 H u1 p0 c0


>  <multiplicity>  (5) 
2

>  <reaction>  (5) 
rxn_690

>  <type>  (5) 
r2

>  <role_mapnums>  (5) 
{}

>  <role_mapidx>  (5) 
{}

>  <ordered_mapped_smiles>  (5) 
[H:1]

>  <level_of_theory>  (5) 
wb97xd/def2tzvp

>  <lot_method>  (5) 
wb97xd

>  <lot_basis>  (5) 
def2tzvp

>  <spin_multiplicity>  (5) 
2.0

>  <optical_isomers>  (5) 
1.0

>  <modes>  (5) 
IdealGasTranslation(mass=(1.00797, 'amu')),

>  <frequency_value>  (5) 
unknown

>  <frequency_units>  (5) 
unknown

>  <frequency_list>  (5) 
unknown

>  <arkane_path>  (5) 
/home/calvin/Dropbox/PersonalFolders/Calvin/HAb_Converged/rxn_690/output/Species/rxn_690_[H]/arkane/output.py

>  <path_exists>  (5) 
True

>  <E0_value>  (5) 
-1319.7535890175566

>  <E0_units>  (5) 
kJ/mol

>  <thermo_class>  (5) 
NASA

>  <Cp0_value>  (5) 
20.78618

>  <Cp0_units>  (5) 
J/(mol*K)

>  <CpInf_value>  (5) 
20.78618

>  <CpInf_units>  (5) 
J/(mol*K)

>  <Tmin_value>  (5) 
10.0

>  <Tmin_units>  (5) 
K

>  <Tmax_value>  (5) 
3000.0

>  <Tmax_units>  (5) 
K

>  <polynomials>  (5) 
[{"name": "polynomial1", "class": "NASAPolynomial", "Tmin_value": 10.0, "Tmin_units": "K", "Tmax_value": 1853.5663026740365, "Tmax_units": "K", "coeffs": [2.500000000000126, -2.814048095438137e-15, 9.047587538332909e-18, -8.591944598242694e-21, 2.4182720553650057e-24, -158729.69562032758, -0.461069367474324]}, {"name": "polynomial2", "class": "NASAPolynomial", "Tmin_value": 1853.5663026740365, "Tmin_units": "K", "Tmax_value": 3000.0, "Tmax_units": "K", "coeffs": [2.500000000696122, -1.3129776766613561e-12, 9.140875080033424e-16, -2.782806647322001e-19, 3.1263265306749967e-23, -158729.69562061856, -0.4610693713504795]}]

>  <H298_value>  (5) 
-313.9482141882736

>  <H298_units>  (5) 
kcal/mol

>  <S298_value>  (5) 
27.387012987908147

>  <S298_units>  (5) 
cal/(mol*K)

>  <Cp_T_value_list>  (5) 
[4.968016252389826, 4.968016252389978, 4.968016252390173, 4.96801625239036, 4.968016252390567, 4.968016252390427, 4.968016252389077, 4.968016252391019, 4.968016252390868]

>  <Cp_T_units>  (5) 
cal/(mol*K)

>  <T_list>  (5) 
[300.0, 400.0, 500.0, 600.0, 800.0, 1000.0, 1500.0, 2000.0, 2400.0]

>  <T_units>  (5) 
K

>  <yaml_path>  (5) 
/home/calvin/Dropbox/PersonalFolders/Calvin/HAb_Converged/rxn_690/output/Species/rxn_690_[H]/rxn_690_H.yml

>  <frequencies_cm1>  (5) 
[]

>  <ZPE_kJmol>  (5) 
unknown

>  <E_elec_kJmol>  (5) 
unknown

>  <E0_minus_Eelec_plus_ZPE_kJmol>  (5) 
unknown

>  <rxn>  (5) 
rxn_690

>  <species_type>  (5) 
r0

>  <species_folder>  (5) 
rxn_690_[H]

>  <frequencies_cm1_list>  (5) 
[]

>  <E0_kJmol>  (5) 
-1319.75

>  <H298_kJmol>  (5) 
-1313.56

$$$$
