
     RDKit          3D

 13 12  0  0  0  0  0  0  0  0999 V2000
   -0.0151   -0.3787   -2.1389 C   0  0  0  0  0  2  0  0  0  1  0  0
   -0.0071   -0.2830   -0.9418 C   0  0  0  0  0  2  0  0  0  2  0  0
    0.0023   -0.2101    0.4974 C   0  0  0  0  0  0  0  0  0  3  0  0
   -1.2656    0.3849    1.0872 C   0  0  0  0  0  0  0  0  0  4  0  0
    1.2823    0.3749    1.0710 C   0  0  0  0  0  0  0  0  0  5  0  0
   -0.0222   -0.4546   -3.1994 H   0  0  0  0  0  0  0  0  0  6  0  0
    0.0004   -1.2466    0.8347 H   0  0  0  0  0  0  0  0  0  7  0  0
   -2.1522   -0.1162    0.6984 H   0  0  0  0  0  0  0  0  0  8  0  0
   -1.3434    1.4483    0.8464 H   0  0  0  0  0  0  0  0  0  9  0  0
   -1.2567    0.2815    2.1741 H   0  0  0  0  0  0  0  0  0 10  0  0
    1.3654    1.4376    0.8292 H   0  0  0  0  0  0  0  0  0 11  0  0
    2.1599   -0.1332    0.6709 H   0  0  0  0  0  0  0  0  0 12  0  0
    1.2864    0.2715    2.1579 H   0  0  0  0  0  0  0  0  0 13  0  0
  1  6  1  0
  1  2  1  0
  2  3  1  0
  3  4  1  0
  3  5  1  0
  3  7  1  0
  4  8  1  0
  4  9  1  0
  4 10  1  0
  5 11  1  0
  5 12  1  0
  5 13  1  0
M  RAD  2   1   3   2   3
M  END
>  <rmg_smiles>  (1) 
[CH][C]C(C)C

>  <rmg_adjacency_list>  (1) 
1  C u0 p0 c0 {2,S} {3,S} {4,S} {6,S}
2  C u0 p0 c0 {1,S} {7,S} {8,S} {9,S}
3  C u0 p0 c0 {1,S} {10,S} {11,S} {12,S}
4  C u0 p1 c0 {1,S} {5,S}
5  C u0 p1 c0 {4,S} {13,S}
6  H u0 p0 c0 {1,S}
7  H u0 p0 c0 {2,S}
8  H u0 p0 c0 {2,S}
9  H u0 p0 c0 {2,S}
10 H u0 p0 c0 {3,S}
11 H u0 p0 c0 {3,S}
12 H u0 p0 c0 {3,S}
13 H u0 p0 c0 {5,S}


>  <multiplicity>  (1) 
1

>  <reaction>  (1) 
rxn_1302

>  <type>  (1) 
r1h

>  <role_mapnums>  (1) 
{"r1h_a": 3, "r1h_h": 7}

>  <role_mapidx>  (1) 
{"r1h_a": 2, "r1h_h": 6}

>  <ordered_mapped_smiles>  (1) 
[C:1]([C:2][C:3]([C:4]([H:8])([H:9])[H:10])([C:5]([H:11])([H:12])[H:13])[H:7])[H:6]

>  <mol_properties>  (1) 
{"2": {"label": "donator", "atom_type": "Cs"}, "6": {"label": "d_hydrogen", "atom_type": "H0"}}

>  <level_of_theory>  (1) 
wb97xd/def2tzvp

>  <lot_method>  (1) 
wb97xd

>  <lot_basis>  (1) 
def2tzvp

>  <spin_multiplicity>  (1) 
1.0

>  <optical_isomers>  (1) 
1.0

>  <modes>  (1) 
IdealGasTranslation(mass=(68.0626, 'amu')),         NonlinearRotor(             inertia = ([63.031, 131.338, 177.504

>  <frequency_value>  (1) 
unknown

>  <frequency_units>  (1) 
unknown

>  <frequency_list>  (1) 
unknown

>  <arkane_path>  (1) 
/home/calvin/Dropbox/PersonalFolders/Calvin/HAb_Converged/rxn_1302/output/Species/rxn_1302_CtCC[C]C/arkane/output.py

>  <path_exists>  (1) 
True

>  <E0_value>  (1) 
-512436.2321226376

>  <E0_units>  (1) 
kJ/mol

>  <thermo_class>  (1) 
NASA

>  <Cp0_value>  (1) 
33.257888

>  <Cp0_units>  (1) 
J/(mol*K)

>  <CpInf_value>  (1) 
307.635464

>  <CpInf_units>  (1) 
J/(mol*K)

>  <Tmin_value>  (1) 
10.0

>  <Tmin_units>  (1) 
K

>  <Tmax_value>  (1) 
3000.0

>  <Tmax_units>  (1) 
K

>  <polynomials>  (1) 
[{"name": "polynomial1", "class": "NASAPolynomial", "Tmin_value": 10.0, "Tmin_units": "K", "Tmax_value": 293.0407624013314, "Tmax_units": "K", "coeffs": [3.9101886097059264, 0.0069849319055039685, 0.00016661855350475234, -4.2944025859153837e-07, 3.715868629965923e-10, -61631842.919720486, 9.420104844549218]}, {"name": "polynomial2", "class": "NASAPolynomial", "Tmin_value": 293.0407624013314, "Tmin_units": "K", "Tmax_value": 3000.0, "Tmax_units": "K", "coeffs": [1.1644442010838205, 0.04446438207111068, -2.52295815987051e-05, 7.014702784040353e-09, -7.641632564807846e-13, -61631681.99713866, 19.29648088401905]}]

>  <H298_value>  (1) 
-122470.68169768815

>  <H298_units>  (1) 
kcal/mol

>  <S298_value>  (1) 
75.75418343380927

>  <S298_units>  (1) 
cal/(mol*K)

>  <Cp_T_value_list>  (1) 
[24.673759492733886, 30.48939610587082, 35.607396985307304, 40.0949997668281, 47.42973897696881, 52.95862441339962, 61.40568267180244, 65.70875577504152, 67.91222494070715]

>  <Cp_T_units>  (1) 
cal/(mol*K)

>  <T_list>  (1) 
[300.0, 400.0, 500.0, 600.0, 800.0, 1000.0, 1500.0, 2000.0, 2400.0]

>  <T_units>  (1) 
K

>  <yaml_path>  (1) 
/home/calvin/Dropbox/PersonalFolders/Calvin/HAb_Converged/rxn_1302/output/Species/rxn_1302_CtCC[C]C/rxn_1302_CtCCCC.yml

>  <frequencies_cm1>  (1) 
[181.78970237636, 214.59329125, 227.57876049012, 284.68461041124, 357.7218662747599, 538.28237827884, 546.74250419308, 681.47275617148, 684.6727713305999, 777.09552675248, 934.7477757290399, 938.00959375604, 968.90416071072, 1120.3143200313998, 1127.90233881, 1188.30434168472, 1322.0938166742799, 1344.4252529349199, 1390.50272443212, 1410.02556369688, 1473.5177099656, 1475.7288792386398, 1485.74781082052, 1496.61824858208, 2216.82766894368, 3013.5353057700795, 3017.3808175492795, 3019.5370509397603, 3091.98374606576, 3096.2206760082004, 3103.6370201537993, 3105.55290905808, 3437.4617775149595]

>  <ZPE_kJmol>  (1) 
294.721743692255

>  <E_elec_kJmol>  (1) 
-512730.9538663298

>  <E0_minus_Eelec_plus_ZPE_kJmol>  (1) 
0.0

>  <rxn>  (1) 
rxn_1302

>  <species_type>  (1) 
r0

>  <species_folder>  (1) 
rxn_1302_CtCC[C]C

>  <frequencies_cm1_list>  (1) 
[181.78970237636, 214.59329125, 227.57876049012, 284.68461041124, 357.7218662747599, 538.28237827884, 546.74250419308, 681.47275617148, 684.6727713305999, 777.09552675248, 934.7477757290399, 938.00959375604, 968.90416071072, 1120.3143200313998, 1127.90233881, 1188.30434168472, 1322.0938166742799, 1344.4252529349199, 1390.50272443212, 1410.02556369688, 1473.5177099656, 1475.7288792386398, 1485.74781082052, 1496.61824858208, 2216.82766894368, 3013.5353057700795, 3017.3808175492795, 3019.5370509397603, 3091.98374606576, 3096.2206760082004, 3103.6370201537993, 3105.55290905808, 3437.4617775149595]

>  <E0_kJmol>  (1) 
-512436

>  <H298_kJmol>  (1) 
-512417

$$$$

     RDKit          3D

  5  4  0  0  0  0  0  0  0  0999 V2000
    0.0013    0.9648   -0.3844 H   0  0  0  0  0  0  0  0  0  1  0  0
   -0.0001   -0.0424    0.0180 C   0  0  0  0  0  0  0  0  0  2  0  0
    0.0072    0.1035    1.0928 H   0  0  0  0  0  0  0  0  0  3  0  0
    0.9104   -0.4606   -0.3969 H   0  0  0  0  0  0  0  0  0  4  0  0
   -0.9189   -0.4535   -0.3855 H   0  0  0  0  0  0  0  0  0  5  0  0
  1  2  1  0
  2  5  1  0
  2  3  1  0
  2  4  1  0
M  END
>  <rmg_smiles>  (2) 
C

>  <rmg_adjacency_list>  (2) 
1 H u0 p0 c0 {2,S}
2 C u0 p0 c0 {1,S} {3,S} {4,S} {5,S}
3 H u0 p0 c0 {2,S}
4 H u0 p0 c0 {2,S}
5 H u0 p0 c0 {2,S}


>  <multiplicity>  (2) 
1

>  <reaction>  (2) 
rxn_1302

>  <type>  (2) 
r2h

>  <role_mapnums>  (2) 
{"r2h_a": 2, "r2h_h": 1}

>  <role_mapidx>  (2) 
{"r2h_a": 1, "r2h_h": 0}

>  <ordered_mapped_smiles>  (2) 
[H:1][C:2]([H:3])([H:4])[H:5]

>  <mol_properties>  (2) 
{"0": {"label": "a_hydrogen", "atom_type": "H0"}, "1": {"label": "acceptor", "atom_type": "Cs"}}

>  <level_of_theory>  (2) 
wb97xd/def2tzvp

>  <lot_method>  (2) 
wb97xd

>  <lot_basis>  (2) 
def2tzvp

>  <spin_multiplicity>  (2) 
1.0

>  <optical_isomers>  (2) 
1.0

>  <modes>  (2) 
IdealGasTranslation(mass=(16.0313, 'amu')),         NonlinearRotor(             inertia = ([3.18679, 3.18679, 3.18679

>  <frequency_value>  (2) 
unknown

>  <frequency_units>  (2) 
unknown

>  <frequency_list>  (2) 
unknown

>  <arkane_path>  (2) 
/home/calvin/Dropbox/PersonalFolders/Calvin/HAb_Converged/rxn_1302/output/Species/rxn_1302_C/arkane/output.py

>  <path_exists>  (2) 
True

>  <E0_value>  (2) 
-106268.5262916272

>  <E0_units>  (2) 
kJ/mol

>  <thermo_class>  (2) 
NASA

>  <Cp0_value>  (2) 
33.257888

>  <Cp0_units>  (2) 
J/(mol*K)

>  <CpInf_value>  (2) 
108.088136

>  <CpInf_units>  (2) 
J/(mol*K)

>  <Tmin_value>  (2) 
10.0

>  <Tmin_units>  (2) 
K

>  <Tmax_value>  (2) 
3000.0

>  <Tmax_units>  (2) 
K

>  <polynomials>  (2) 
[{"name": "polynomial1", "class": "NASAPolynomial", "Tmin_value": 10.0, "Tmin_units": "K", "Tmax_value": 616.7595780986624, "Tmax_units": "K", "coeffs": [4.041420799946622, -0.002477807655966685, 1.1290457802459216e-05, 3.700688819348292e-09, -9.366412561864162e-12, -12781153.318458663, -0.42637433538586406]}, {"name": "polynomial2", "class": "NASAPolynomial", "Tmin_value": 616.7595780986624, "Tmin_units": "K", "Tmax_value": 3000.0, "Tmax_units": "K", "coeffs": [0.6800320423470843, 0.011684066325645743, -4.5749540261290126e-06, 7.694671628924811e-10, -3.8768177461555664e-14, -12780593.404419335, 15.343675764562182]}]

>  <H298_value>  (2) 
-25396.41264990868

>  <H298_units>  (2) 
kcal/mol

>  <S298_value>  (2) 
44.46392088520575

>  <S298_units>  (2) 
cal/(mol*K)

>  <Cp_T_value_list>  (2) 
[8.621039065772948, 9.645572285350525, 10.934239595808906, 12.330144838344452, 14.859142397339834, 16.9306880471269, 20.49440393107996, 22.423230884533538, 23.291918246513866]

>  <Cp_T_units>  (2) 
cal/(mol*K)

>  <T_list>  (2) 
[300.0, 400.0, 500.0, 600.0, 800.0, 1000.0, 1500.0, 2000.0, 2400.0]

>  <T_units>  (2) 
K

>  <yaml_path>  (2) 
/home/calvin/Dropbox/PersonalFolders/Calvin/HAb_Converged/rxn_1302/output/Species/rxn_1302_C/rxn_1302_C.yml

>  <frequencies_cm1>  (2) 
[1326.5504901469599, 1326.5504901469599, 1326.5504901469599, 1542.24249904816, 1542.24249904816, 3008.8382878112, 3127.32125252248, 3127.32125252248, 3127.32125252248]

>  <ZPE_kJmol>  (2) 
116.36640738144024

>  <E_elec_kJmol>  (2) 
-106384.89269900863

>  <E0_minus_Eelec_plus_ZPE_kJmol>  (2) 
0.0

>  <rxn>  (2) 
rxn_1302

>  <species_type>  (2) 
p0

>  <species_folder>  (2) 
rxn_1302_C

>  <frequencies_cm1_list>  (2) 
[1326.5504901469599, 1326.5504901469599, 1326.5504901469599, 1542.24249904816, 1542.24249904816, 3008.8382878112, 3127.32125252248, 3127.32125252248, 3127.32125252248]

>  <E0_kJmol>  (2) 
-106269

>  <H298_kJmol>  (2) 
-106259

$$$$

     RDKit          3D

 17 15  0  0  0  0  0  0  0  0999 V2000
   -0.0187    0.1184   -2.3877 C   0  0  0  0  0  0  0  0  0  1  0  0
   -0.0107    0.2142   -1.1907 C   0  0  0  0  0  0  0  0  0  2  0  0
   -0.0012    0.2870    0.2486 C   0  0  0  0  0  0  0  0  0  3  0  0
   -1.2692    0.8820    0.8384 C   0  0  0  0  0  0  0  0  0  4  0  0
    1.2788    0.8720    0.8222 C   0  0  0  0  0  0  0  0  0  5  0  0
   -0.0257    0.0426   -3.4482 H   0  0  0  0  0  0  0  0  0  6  0  0
   -0.0034   -0.9034    0.6360 H   0  0  0  0  0  0  0  0  0  7  0  0
   -2.1557    0.3809    0.4496 H   0  0  0  0  0  0  0  0  0  8  0  0
   -1.3469    1.9454    0.5976 H   0  0  0  0  0  0  0  0  0  9  0  0
   -1.2603    0.7787    1.9252 H   0  0  0  0  0  0  0  0  0 10  0  0
    1.3618    1.9348    0.5803 H   0  0  0  0  0  0  0  0  0 11  0  0
    2.1563    0.3640    0.4221 H   0  0  0  0  0  0  0  0  0 12  0  0
    1.2829    0.7687    1.9090 H   0  0  0  0  0  0  0  0  0 13  0  0
   -0.0053   -2.2606    1.1782 C   0  0  0  0  0  3  0  0  0 14  0  0
    0.0020   -2.1147    2.2531 H   0  0  0  0  0  0  0  0  0 15  0  0
    0.9052   -2.6788    0.7633 H   0  0  0  0  0  0  0  0  0 16  0  0
   -0.9241   -2.6717    0.7747 H   0  0  0  0  0  0  0  0  0 17  0  0
  1  6  1  0
  1  2  1  0
  2  3  1  0
  3  4  1  0
  3  5  1  0
  3  7  1  0
  4  8  1  0
  4  9  1  0
  4 10  1  0
  5 11  1  0
  5 12  1  0
  5 13  1  0
 14 17  1  0
 14 15  1  0
 14 16  1  0
M  RAD  1  14   2
M  END
>  <rmg_smiles>  (3) 
[CH3].[CH]CC(C)C

>  <rmg_adjacency_list>  (3) 
multiplicity 2
1  C u0 p0 c0 {2,S} {3,S} {5,S} {7,S}
2  C u0 p0 c0 {1,S} {8,S} {9,S} {10,S}
3  C u0 p0 c0 {1,S} {11,S} {12,S} {13,S}
4  C u1 p0 c0 {14,S} {15,S} {16,S}
5  C u0 p1 c0 {1,S} {6,S}
6  C u0 p1 c0 {5,S} {17,S}
7  H u0 p0 c0 {1,S}
8  H u0 p0 c0 {2,S}
9  H u0 p0 c0 {2,S}
10 H u0 p0 c0 {2,S}
11 H u0 p0 c0 {3,S}
12 H u0 p0 c0 {3,S}
13 H u0 p0 c0 {3,S}
14 H u0 p0 c0 {4,S}
15 H u0 p0 c0 {4,S}
16 H u0 p0 c0 {4,S}
17 H u0 p0 c0 {6,S}


>  <multiplicity>  (3) 
2

>  <reaction>  (3) 
rxn_1302

>  <type>  (3) 
ts

>  <role_mapnums>  (3) 
{"*2": 7, "*1": 3, "*3": 14, "*0": 2, "*4": 15}

>  <role_mapidx>  (3) 
{"*2": 6, "*1": 2, "*3": 13, "*0": 1, "*4": 14}

>  <ordered_mapped_smiles>  (3) 
[CH2:1]([CH2:2][C:3]([C:4]([H:8])([H:9])[H:10])([C:5]([H:11])([H:12])[H:13])[H:7])[H:6].[C:14]([H:15])([H:16])[H:17]

>  <mol_properties>  (3) 
{"1": {"label": "*0", "atom_type": "C2s"}, "2": {"label": "*1", "atom_type": "Cs"}, "6": {"label": "*2", "atom_type": "H0"}, "13": {"label": "*3", "atom_type": "Cs"}, "14": {"label": "*4", "atom_type": "H0"}}

>  <level_of_theory>  (3) 
wb97xd/def2tzvp

>  <lot_method>  (3) 
wb97xd

>  <lot_basis>  (3) 
def2tzvp

>  <spin_multiplicity>  (3) 
2.0

>  <optical_isomers>  (3) 
1.0

>  <modes>  (3) 
IdealGasTranslation(mass=(83.0861, 'amu')),         NonlinearRotor(             inertia = ([155.229, 215.57, 256.864

>  <frequency_value>  (3) 
-1473.89

>  <frequency_units>  (3) 
cm^-1

>  <frequency_list>  (3) 
unknown

>  <arkane_path>  (3) 
/home/calvin/Dropbox/PersonalFolders/Calvin/HAb_Converged/rxn_1302/output/rxns/TS0/arkane/output.py

>  <path_exists>  (3) 
True

>  <E0_value>  (3) 
-616929.0

>  <E0_units>  (3) 
kJ/mol

>  <thermo_class>  (3) 
unknown

>  <Cp0_value>  (3) 
unknown

>  <Cp0_units>  (3) 
unknown

>  <CpInf_value>  (3) 
unknown

>  <CpInf_units>  (3) 
unknown

>  <Tmin_value>  (3) 
unknown

>  <Tmin_units>  (3) 
unknown

>  <Tmax_value>  (3) 
unknown

>  <Tmax_units>  (3) 
unknown

>  <polynomials>  (3) 
unknown

>  <H298_value>  (3) 
unknown

>  <H298_units>  (3) 
unknown

>  <S298_value>  (3) 
unknown

>  <S298_units>  (3) 
unknown

>  <Cp_T_value_list>  (3) 
unknown

>  <Cp_T_units>  (3) 
unknown

>  <T_list>  (3) 
unknown

>  <T_units>  (3) 
unknown

>  <yaml_path>  (3) 
unknown

>  <frequencies_cm1>  (3) 
unknown

>  <ZPE_kJmol>  (3) 
unknown

>  <E_elec_kJmol>  (3) 
unknown

>  <E0_minus_Eelec_plus_ZPE_kJmol>  (3) 
unknown

>  <rxn>  (3) 
unknown

>  <species_type>  (3) 
unknown

>  <species_folder>  (3) 
unknown

>  <frequencies_cm1_list>  (3) 
[]

>  <ts_imag_freq_cm1>  (3) 
-1491.7962

>  <ts_freq_out_path>  (3) 
/home/calvin/Dropbox/PersonalFolders/Calvin/HAb_Converged/rxn_1302/output/rxns/TS0/geometry/freq.out

>  <E0_kJmol>  (3) 
-616929

>  <H298_kJmol>  (3) 
unknown

$$$$

     RDKit          3D

 12 11  0  0  0  0  0  0  0  0999 V2000
    2.5164   -0.5559   -0.0242 C   0  0  0  0  0  0  0  0  0  1  0  0
    1.3287   -0.2938   -0.0132 C   0  0  0  0  0  0  0  0  0  2  0  0
   -0.0146    0.0027   -0.0006 C   0  0  0  0  0  3  0  0  0  3  0  0
   -1.0396   -1.0729   -0.1642 C   0  0  0  0  0  0  0  0  0  4  0  0
   -0.4887    1.4091    0.1769 C   0  0  0  0  0  0  0  0  0  5  0  0
    3.5543   -0.7850   -0.0339 H   0  0  0  0  0  0  0  0  0  6  0  0
   -1.7064   -1.1056    0.7044 H   0  0  0  0  0  0  0  0  0  7  0  0
   -0.5831   -2.0533   -0.2854 H   0  0  0  0  0  0  0  0  0  8  0  0
   -1.6716   -0.8741   -1.0367 H   0  0  0  0  0  0  0  0  0  9  0  0
   -1.0951    1.7228   -0.6798 H   0  0  0  0  0  0  0  0  0 10  0  0
    0.3401    2.1059    0.2861 H   0  0  0  0  0  0  0  0  0 11  0  0
   -1.1300    1.4913    1.0613 H   0  0  0  0  0  0  0  0  0 12  0  0
  1  6  1  0
  1  2  1  0
  2  3  1  0
  3  4  1  0
  3  5  1  0
  4  8  1  0
  4  9  1  0
  4  7  1  0
  5 11  1  0
  5 12  1  0
  5 10  1  0
M  RAD  1   3   2
M  END
>  <rmg_smiles>  (4) 
[CH]C[C](C)C

>  <rmg_adjacency_list>  (4) 
multiplicity 2
1  C u0 p0 c0 {3,S} {6,S} {7,S} {8,S}
2  C u0 p0 c0 {3,S} {9,S} {10,S} {11,S}
3  C u1 p0 c0 {1,S} {2,S} {4,S}
4  C u0 p1 c0 {3,S} {5,S}
5  C u0 p1 c0 {4,S} {12,S}
6  H u0 p0 c0 {1,S}
7  H u0 p0 c0 {1,S}
8  H u0 p0 c0 {1,S}
9  H u0 p0 c0 {2,S}
10 H u0 p0 c0 {2,S}
11 H u0 p0 c0 {2,S}
12 H u0 p0 c0 {5,S}


>  <multiplicity>  (4) 
2

>  <reaction>  (4) 
rxn_1302

>  <type>  (4) 
r1

>  <role_mapnums>  (4) 
{}

>  <role_mapidx>  (4) 
{}

>  <ordered_mapped_smiles>  (4) 
[CH2:1]([CH2:2][C:3]([C:4]([H:7])([H:8])[H:9])[C:5]([H:10])([H:11])[H:12])[H:6]

>  <level_of_theory>  (4) 
wb97xd/def2tzvp

>  <lot_method>  (4) 
wb97xd

>  <lot_basis>  (4) 
def2tzvp

>  <spin_multiplicity>  (4) 
2.0

>  <optical_isomers>  (4) 
1.0

>  <modes>  (4) 
IdealGasTranslation(mass=(67.0548, 'amu')),         NonlinearRotor(             inertia = ([59.1627, 131.378, 184.32

>  <frequency_value>  (4) 
unknown

>  <frequency_units>  (4) 
unknown

>  <frequency_list>  (4) 
unknown

>  <arkane_path>  (4) 
/home/calvin/Dropbox/PersonalFolders/Calvin/HAb_Converged/rxn_1302/output/Species/rxn_1302_CtC[C][C]C/arkane/output.py

>  <path_exists>  (4) 
True

>  <E0_value>  (4) 
-510778.0605189803

>  <E0_units>  (4) 
kJ/mol

>  <thermo_class>  (4) 
NASA

>  <Cp0_value>  (4) 
33.257888

>  <Cp0_units>  (4) 
J/(mol*K)

>  <CpInf_value>  (4) 
282.692048

>  <CpInf_units>  (4) 
J/(mol*K)

>  <Tmin_value>  (4) 
10.0

>  <Tmin_units>  (4) 
K

>  <Tmax_value>  (4) 
3000.0

>  <Tmax_units>  (4) 
K

>  <polynomials>  (4) 
[{"name": "polynomial1", "class": "NASAPolynomial", "Tmin_value": 10.0, "Tmin_units": "K", "Tmax_value": 1039.297839376542, "Tmax_units": "K", "coeffs": [3.598818116233137, 0.033392740321885155, -9.378432171899418e-06, -5.856696266128411e-09, 3.271376899501553e-12, -61432406.21278496, 9.976237246510115]}, {"name": "polynomial2", "class": "NASAPolynomial", "Tmin_value": 1039.297839376542, "Tmin_units": "K", "Tmax_value": 3000.0, "Tmax_units": "K", "coeffs": [5.079452673281011, 0.033284570157804484, -1.7290873427004894e-05, 4.394457265686428e-09, -4.3949451822427094e-13, -61433015.89895733, 1.3234305447781438]}]

>  <H298_value>  (4) 
-122073.98367000771

>  <H298_units>  (4) 
kcal/mol

>  <S298_value>  (4) 
79.4255488393029

>  <S298_units>  (4) 
cal/(mol*K)

>  <Cp_T_value_list>  (4) 
[25.1201753773187, 30.13456332004963, 34.623007965675164, 38.58588826040132, 45.014482399280844, 49.735420575541255, 57.04911167988228, 60.826095998833885, 62.665750252433256]

>  <Cp_T_units>  (4) 
cal/(mol*K)

>  <T_list>  (4) 
[300.0, 400.0, 500.0, 600.0, 800.0, 1000.0, 1500.0, 2000.0, 2400.0]

>  <T_units>  (4) 
K

>  <yaml_path>  (4) 
/home/calvin/Dropbox/PersonalFolders/Calvin/HAb_Converged/rxn_1302/output/Species/rxn_1302_CtC[C][C]C/rxn_1302_CtCCCC.yml

>  <frequencies_cm1>  (4) 
[99.21420390335999, 101.22623060211998, 185.93736150964, 255.63726250763995, 344.22137313563996, 457.05280892856, 461.24166997375994, 585.753847796, 665.5688181703599, 727.2892822265198, 951.3864811594, 965.6148747424401, 1006.9197914422399, 1043.12253804928, 1243.10975152364, 1333.7402237769998, 1389.39027281028, 1401.68217653308, 1454.72277114476, 1460.9648608006398, 1470.11168524688, 1490.7813110600798, 2012.45245184984, 2983.54718087764, 2987.02874243488, 3032.15856995792, 3032.5293871651998, 3111.8568015818396, 3113.09285893944, 3430.21024101704]

>  <ZPE_kJmol>  (4) 
255.9863644311404

>  <E_elec_kJmol>  (4) 
-511034.0468834115

>  <E0_minus_Eelec_plus_ZPE_kJmol>  (4) 
0.0

>  <rxn>  (4) 
rxn_1302

>  <species_type>  (4) 
p1

>  <species_folder>  (4) 
rxn_1302_CtC[C][C]C

>  <frequencies_cm1_list>  (4) 
[99.21420390335999, 101.22623060211998, 185.93736150964, 255.63726250763995, 344.22137313563996, 457.05280892856, 461.24166997375994, 585.753847796, 665.5688181703599, 727.2892822265198, 951.3864811594, 965.6148747424401, 1006.9197914422399, 1043.12253804928, 1243.10975152364, 1333.7402237769998, 1389.39027281028, 1401.68217653308, 1454.72277114476, 1460.9648608006398, 1470.11168524688, 1490.7813110600798, 2012.45245184984, 2983.54718087764, 2987.02874243488, 3032.15856995792, 3032.5293871651998, 3111.8568015818396, 3113.09285893944, 3430.21024101704]

>  <E0_kJmol>  (4) 
-510778

>  <H298_kJmol>  (4) 
-510758

$$$$

     RDKit          3D

  4  3  0  0  0  0  0  0  0  0999 V2000
    0.0000    0.0000    0.0000 C   0  0  0  0  0  3  0  0  0  1  0  0
    1.0638   -0.1747    0.0540 H   0  0  0  0  0  0  0  0  0  2  0  0
   -0.6833   -0.8351   -0.0280 H   0  0  0  0  0  0  0  0  0  3  0  0
   -0.3805    1.0098   -0.0260 H   0  0  0  0  0  0  0  0  0  4  0  0
  1  3  1  0
  1  4  1  0
  1  2  1  0
M  RAD  1   1   2
M  END
>  <rmg_smiles>  (5) 
[CH3]

>  <rmg_adjacency_list>  (5) 
multiplicity 2
1 C u1 p0 c0 {2,S} {3,S} {4,S}
2 H u0 p0 c0 {1,S}
3 H u0 p0 c0 {1,S}
4 H u0 p0 c0 {1,S}


>  <multiplicity>  (5) 
2

>  <reaction>  (5) 
rxn_1302

>  <type>  (5) 
r2

>  <role_mapnums>  (5) 
{}

>  <role_mapidx>  (5) 
{}

>  <ordered_mapped_smiles>  (5) 
[C:1]([H:2])([H:3])[H:4]

>  <level_of_theory>  (5) 
wb97xd/def2tzvp

>  <lot_method>  (5) 
wb97xd

>  <lot_basis>  (5) 
def2tzvp

>  <spin_multiplicity>  (5) 
2.0

>  <optical_isomers>  (5) 
1.0

>  <modes>  (5) 
IdealGasTranslation(mass=(15.0235, 'amu')),         NonlinearRotor(             inertia = ([1.76141, 1.76141, 3.52282

>  <frequency_value>  (5) 
unknown

>  <frequency_units>  (5) 
unknown

>  <frequency_list>  (5) 
unknown

>  <arkane_path>  (5) 
/home/calvin/Dropbox/PersonalFolders/Calvin/HAb_Converged/rxn_1302/output/Species/rxn_1302_[CH3]/arkane/output.py

>  <path_exists>  (5) 
True

>  <E0_value>  (5) 
-104520.13119505512

>  <E0_units>  (5) 
kJ/mol

>  <thermo_class>  (5) 
NASA

>  <Cp0_value>  (5) 
33.257888

>  <Cp0_units>  (5) 
J/(mol*K)

>  <CpInf_value>  (5) 
83.14472

>  <CpInf_units>  (5) 
J/(mol*K)

>  <Tmin_value>  (5) 
10.0

>  <Tmin_units>  (5) 
K

>  <Tmax_value>  (5) 
3000.0

>  <Tmax_units>  (5) 
K

>  <polynomials>  (5) 
[{"name": "polynomial1", "class": "NASAPolynomial", "Tmin_value": 10.0, "Tmin_units": "K", "Tmax_value": 646.6680568167106, "Tmax_units": "K", "coeffs": [3.9912271000461548, 0.0004274218009639198, 9.38132315134313e-06, -1.0944874554220949e-08, 4.263406085556096e-12, -12570867.748368958, 0.20527673099681187]}, {"name": "polynomial2", "class": "NASAPolynomial", "Tmin_value": 646.6680568167106, "Tmin_units": "K", "Tmax_value": 3000.0, "Tmax_units": "K", "coeffs": [3.2488827598675174, 0.0050187516265713635, -1.2675301815554908e-06, 3.215102013021586e-11, 2.0164394281080815e-14, -12570771.728238096, 3.4631324604304954]}]

>  <H298_value>  (5) 
-24978.383291331436

>  <H298_units>  (5) 
kcal/mol

>  <S298_value>  (5) 
46.49953999396709

>  <S298_units>  (5) 
cal/(mol*K)

>  <Cp_T_value_list>  (5) 
[9.345424201068383, 10.07887042200736, 10.827537754048599, 11.552428339520182, 12.871902382304132, 14.014614114932202, 16.167234911840477, 17.479674567657305, 18.096247059343543]

>  <Cp_T_units>  (5) 
cal/(mol*K)

>  <T_list>  (5) 
[300.0, 400.0, 500.0, 600.0, 800.0, 1000.0, 1500.0, 2000.0, 2400.0]

>  <T_units>  (5) 
K

>  <yaml_path>  (5) 
/home/calvin/Dropbox/PersonalFolders/Calvin/HAb_Converged/rxn_1302/output/Species/rxn_1302_[CH3]/rxn_1302_CH3.yml

>  <frequencies_cm1>  (5) 
[520.22220688724, 1393.4280601784399, 1393.43492716376, 3088.8592677451597, 3268.6163424668, 3268.6232094521197]

>  <ZPE_kJmol>  (5) 
77.35764153782172

>  <E_elec_kJmol>  (5) 
-104597.48883659294

>  <E0_minus_Eelec_plus_ZPE_kJmol>  (5) 
0.0

>  <rxn>  (5) 
rxn_1302

>  <species_type>  (5) 
r1

>  <species_folder>  (5) 
rxn_1302_[CH3]

>  <frequencies_cm1_list>  (5) 
[520.22220688724, 1393.4280601784399, 1393.43492716376, 3088.8592677451597, 3268.6163424668, 3268.6232094521197]

>  <E0_kJmol>  (5) 
-104520

>  <H298_kJmol>  (5) 
-104510

$$$$
