
     RDKit          3D

  7  6  0  0  0  0  0  0  0  0999 V2000
   -1.2023   -0.9437   -1.8678 O   0  0  0  0  0  0  0  0  0  1  0  0
   -0.8333   -1.0760   -0.7611 C   0  0  0  0  0  0  0  0  0  2  0  0
   -0.0049   -0.0431    0.0501 C   0  0  0  0  0  0  0  0  0  3  0  0
   -0.9609    0.3351    1.4889 Cl  0  0  0  0  0  0  0  0  0  4  0  0
    0.3280    1.4048   -0.8853 Cl  0  0  0  0  0  0  0  0  0  5  0  0
    1.5013   -0.8639    0.4969 Cl  0  0  0  0  0  0  0  0  0  6  0  0
   -1.0422   -1.9625   -0.1622 H   0  0  0  0  0  0  0  0  0  7  0  0
  1  2  1  0
  2  7  1  0
  2  3  1  0
  3  4  1  0
  3  5  1  0
  3  6  1  0
M  END
>  <rmg_smiles>  (1) 
O[CH]C(Cl)(Cl)Cl

>  <rmg_adjacency_list>  (1) 
1 Cl u0 p3 c0 {5,S}
2 Cl u0 p3 c0 {5,S}
3 Cl u0 p3 c0 {5,S}
4 O  u0 p2 c0 {6,S}
5 C  u0 p0 c0 {1,S} {2,S} {3,S} {6,S}
6 C  u0 p0 c0 {4,S} {5,S} {7,S}
7 H  u0 p0 c0 {6,S}


>  <multiplicity>  (1) 
1

>  <reaction>  (1) 
rxn_3201

>  <type>  (1) 
r1h

>  <role_mapnums>  (1) 
{"r1h_a": 2, "r1h_h": 7}

>  <role_mapidx>  (1) 
{"r1h_a": 1, "r1h_h": 6}

>  <ordered_mapped_smiles>  (1) 
[OH:1][CH:2]([C:3]([Cl:4])([Cl:5])[Cl:6])[H:7]

>  <mol_properties>  (1) 
{"1": {"label": "donator", "atom_type": "Cs"}, "6": {"label": "d_hydrogen", "atom_type": "H0"}}

>  <level_of_theory>  (1) 
wb97xd/def2tzvp

>  <lot_method>  (1) 
wb97xd

>  <lot_basis>  (1) 
def2tzvp

>  <spin_multiplicity>  (1) 
1.0

>  <optical_isomers>  (1) 
1.0

>  <modes>  (1) 
IdealGasTranslation(mass=(145.909, 'amu')),         NonlinearRotor(             inertia = ([273.278, 306.314, 329.392

>  <frequency_value>  (1) 
unknown

>  <frequency_units>  (1) 
unknown

>  <frequency_list>  (1) 
unknown

>  <arkane_path>  (1) 
/home/calvin/Dropbox/PersonalFolders/Calvin/ATLAS_Converged/NonRMG/rxn_3201/output/Species/rxn_3201_r2_O=CCrbr-Cl-rbrrbr-Cl-rbrCl/arkane/output.py

>  <path_exists>  (1) 
True

>  <E0_value>  (1) 
-4023892.977935756

>  <E0_units>  (1) 
kJ/mol

>  <thermo_class>  (1) 
NASA

>  <Cp0_value>  (1) 
33.257888

>  <Cp0_units>  (1) 
J/(mol*K)

>  <CpInf_value>  (1) 
157.97496800000002

>  <CpInf_units>  (1) 
J/(mol*K)

>  <Tmin_value>  (1) 
10.0

>  <Tmin_units>  (1) 
K

>  <Tmax_value>  (1) 
3000.0

>  <Tmax_units>  (1) 
K

>  <polynomials>  (1) 
[{"name": "polynomial1", "class": "NASAPolynomial", "Tmin_value": 10.0, "Tmin_units": "K", "Tmax_value": 380.3015181549124, "Tmax_units": "K", "coeffs": [3.723422744940978, 0.02246348912170062, 9.940563687647104e-05, -4.060196262947359e-07, 4.073502896038169e-10, -483962540.97412676, 12.379001585897578]}, {"name": "polynomial2", "class": "NASAPolynomial", "Tmin_value": 380.3015181549124, "Tmin_units": "K", "Tmax_value": 3000.0, "Tmax_units": "K", "coeffs": [6.699481871758383, 0.021429753347926156, -1.5902722382571426e-05, 5.397820217714689e-09, -6.811565500595124e-13, -483962986.2186271, -1.9793128843250438]}]

>  <H298_value>  (1) 
-961728.7883093884

>  <H298_units>  (1) 
kcal/mol

>  <S298_value>  (1) 
83.30597200995851

>  <S298_units>  (1) 
cal/(mol*K)

>  <Cp_T_value_list>  (1) 
[23.34169623423724, 25.942922279124062, 27.961651194826935, 29.629259065849645, 32.093831026528335, 33.66959049712089, 35.436412276197174, 36.23105888610527, 36.86573317562138]

>  <Cp_T_units>  (1) 
cal/(mol*K)

>  <T_list>  (1) 
[300.0, 400.0, 500.0, 600.0, 800.0, 1000.0, 1500.0, 2000.0, 2400.0]

>  <T_units>  (1) 
K

>  <yaml_path>  (1) 
/home/calvin/Dropbox/PersonalFolders/Calvin/ATLAS_Converged/NonRMG/rxn_3201/output/Species/rxn_3201_r2_O=CCrbr-Cl-rbrrbr-Cl-rbrCl/rxn_3201_r2_O=CCrbr-Cl-rbrrbr-Cl-rbrCl.yml

>  <frequencies_cm1>  (1) 
[80.59780670084001, 196.40264713731997, 247.32821027044, 267.48281218463995, 316.03926538236, 322.41182775932, 446.25790800552, 632.8751010618399, 744.04472640732, 857.88560904228, 1011.335263003, 1032.97313374632, 1375.4434256253599, 1859.17447252212, 2950.4757795765195]

>  <ZPE_kJmol>  (1) 
73.8139665390073

>  <E_elec_kJmol>  (1) 
-4023966.7919022953

>  <E0_minus_Eelec_plus_ZPE_kJmol>  (1) 
0.0

>  <rxn>  (1) 
rxn_3201

>  <species_type>  (1) 
r1

>  <species_folder>  (1) 
rxn_3201_r2_O=CCrbr-Cl-rbrrbr-Cl-rbrCl

>  <frequencies_cm1_list>  (1) 
[80.59780670084001, 196.40264713731997, 247.32821027044, 267.48281218463995, 316.03926538236, 322.41182775932, 446.25790800552, 632.8751010618399, 744.04472640732, 857.88560904228, 1011.335263003, 1032.97313374632, 1375.4434256253599, 1859.17447252212, 2950.4757795765195]

>  <E0_kJmol>  (1) 
-4.02389e+06

>  <H298_kJmol>  (1) 
-4.02387e+06

$$$$

     RDKit          3D

  7  7  0  0  0  0  0  0  0  0999 V2000
   -1.1622    1.3907    0.8746 N   0  0  0  0  0  0  0  0  0  1  0  0
   -0.4358    0.5375    0.3232 C   0  0  0  0  0  0  0  0  0  2  0  0
   -0.3741   -0.7786    0.6734 O   0  0  0  0  0  0  0  0  0  3  0  0
    0.5378   -1.3750   -0.1701 N   0  0  0  0  0  0  0  0  0  4  0  0
    0.9950   -0.5570   -0.9501 N   0  0  0  0  0  0  0  0  0  5  0  0
    0.4375    0.6854   -0.7146 O   0  0  0  0  0  0  0  0  0  6  0  0
   -1.0144    2.2955    0.3835 H   0  0  0  0  0  0  0  0  0  7  0  0
  1  2  1  0
  1  7  1  0
  2  3  1  0
  2  6  1  0
  3  4  1  0
  4  5  1  0
  5  6  1  0
M  END
>  <rmg_smiles>  (2) 
[NH][C]1O[N][N]O1

>  <rmg_adjacency_list>  (2) 
1 O u0 p2 c0 {3,S} {6,S}
2 O u0 p2 c0 {4,S} {6,S}
3 N u0 p1 c0 {1,S} {4,S}
4 N u0 p1 c0 {2,S} {3,S}
5 N u0 p1 c0 {6,S} {7,S}
6 C u0 p0 c0 {1,S} {2,S} {5,S}
7 H u0 p0 c0 {5,S}


>  <multiplicity>  (2) 
1

>  <reaction>  (2) 
rxn_3201

>  <type>  (2) 
r2h

>  <role_mapnums>  (2) 
{"r2h_a": 1, "r2h_h": 7}

>  <role_mapidx>  (2) 
{"r2h_a": 0, "r2h_h": 6}

>  <ordered_mapped_smiles>  (2) 
[NH:1]([CH:2]1[O:3][NH:4][NH:5][O:6]1)[H:7]

>  <mol_properties>  (2) 
{"0": {"label": "acceptor", "atom_type": "N3s"}, "6": {"label": "a_hydrogen", "atom_type": "H0"}}

>  <level_of_theory>  (2) 
wb97xd/def2tzvp

>  <lot_method>  (2) 
wb97xd

>  <lot_basis>  (2) 
def2tzvp

>  <spin_multiplicity>  (2) 
1.0

>  <optical_isomers>  (2) 
1.0

>  <modes>  (2) 
IdealGasTranslation(mass=(87.0069, 'amu')),         NonlinearRotor(             inertia = ([48.8575, 120.721, 169.578

>  <frequency_value>  (2) 
unknown

>  <frequency_units>  (2) 
unknown

>  <frequency_list>  (2) 
unknown

>  <arkane_path>  (2) 
/home/calvin/Dropbox/PersonalFolders/Calvin/ATLAS_Converged/NonRMG/rxn_3201/output/Species/rxn_3201_p1_N=c1onno1/arkane/output.py

>  <path_exists>  (2) 
True

>  <E0_value>  (2) 
-927513.3956974436

>  <E0_units>  (2) 
kJ/mol

>  <thermo_class>  (2) 
NASA

>  <Cp0_value>  (2) 
33.257888

>  <Cp0_units>  (2) 
J/(mol*K)

>  <CpInf_value>  (2) 
157.97496800000002

>  <CpInf_units>  (2) 
J/(mol*K)

>  <Tmin_value>  (2) 
10.0

>  <Tmin_units>  (2) 
K

>  <Tmax_value>  (2) 
3000.0

>  <Tmax_units>  (2) 
K

>  <polynomials>  (2) 
[{"name": "polynomial1", "class": "NASAPolynomial", "Tmin_value": 10.0, "Tmin_units": "K", "Tmax_value": 594.5510705426203, "Tmax_units": "K", "coeffs": [4.064128165333628, -0.006464132682369532, 0.00012609118943386684, -2.2452471871589397e-07, 1.2482881080850414e-10, -111554092.36102824, 9.73736041625877]}, {"name": "polynomial2", "class": "NASAPolynomial", "Tmin_value": 594.5510705426203, "Tmin_units": "K", "Tmax_value": 3000.0, "Tmax_units": "K", "coeffs": [2.6619435988700717, 0.02700063330274151, -1.8966063744434276e-05, 6.109629991067157e-09, -7.351884988814937e-13, -111554350.36753283, 12.201082878024012]}]

>  <H298_value>  (2) 
-221677.73393283132

>  <H298_units>  (2) 
kcal/mol

>  <S298_value>  (2) 
69.21240690289005

>  <S298_units>  (2) 
cal/(mol*K)

>  <Cp_T_value_list>  (2) 
[16.736335365541446, 20.824137553247738, 24.027452944596273, 26.348252322457366, 29.711055843773885, 31.936305555783512, 34.552273976473494, 35.596788664173474, 36.33939231381346]

>  <Cp_T_units>  (2) 
cal/(mol*K)

>  <T_list>  (2) 
[300.0, 400.0, 500.0, 600.0, 800.0, 1000.0, 1500.0, 2000.0, 2400.0]

>  <T_units>  (2) 
K

>  <yaml_path>  (2) 
/home/calvin/Dropbox/PersonalFolders/Calvin/ATLAS_Converged/NonRMG/rxn_3201/output/Species/rxn_3201_p1_N=c1onno1/rxn_3201_p1_N=c1onno1.yml

>  <frequencies_cm1>  (2) 
[208.89369343439998, 445.44073675243993, 644.52150816456, 714.2214091625599, 757.75122910604, 783.81143839544, 819.0802749989599, 941.40875148944, 996.4545058145599, 1049.54316932348, 1062.20589025356, 1273.50302854996, 1598.9500638207198, 1829.7357064552798, 3558.0254387782]

>  <ZPE_kJmol>  (2) 
99.78979924741076

>  <E_elec_kJmol>  (2) 
-927613.1854966908

>  <E0_minus_Eelec_plus_ZPE_kJmol>  (2) 
0.0

>  <rxn>  (2) 
rxn_3201

>  <species_type>  (2) 
p0

>  <species_folder>  (2) 
rxn_3201_p1_N=c1onno1

>  <frequencies_cm1_list>  (2) 
[208.89369343439998, 445.44073675243993, 644.52150816456, 714.2214091625599, 757.75122910604, 783.81143839544, 819.0802749989599, 941.40875148944, 996.4545058145599, 1049.54316932348, 1062.20589025356, 1273.50302854996, 1598.9500638207198, 1829.7357064552798, 3558.0254387782]

>  <E0_kJmol>  (2) 
-927513

>  <H298_kJmol>  (2) 
-927500

$$$$

     RDKit          3D

 13 12  0  0  0  0  0  0  0  0999 V2000
   -1.0476   -1.6405    0.6661 N   0  0  0  0  0  2  0  0  0  1  0  0
   -0.3211   -2.4938    0.1147 C   0  0  0  0  0  0  0  0  0  2  0  0
   -0.2595   -3.8098    0.4649 O   0  0  0  0  0  0  0  0  0  3  0  0
    0.6524   -4.4062   -0.3786 N   0  0  0  0  0  0  0  0  0  4  0  0
    1.1096   -3.5882   -1.1586 N   0  0  0  0  0  0  0  0  0  5  0  0
    0.5521   -2.3458   -0.9231 O   0  0  0  0  0  0  0  0  0  6  0  0
   -0.9796    0.7167   -1.7833 O   0  0  0  0  0  0  0  0  0  7  0  0
   -0.6106    0.5843   -0.6766 C   0  0  0  0  0  0  0  0  0  8  0  0
    0.2178    1.6172    0.1345 C   0  0  0  0  0  0  0  0  0  9  0  0
   -0.7382    1.9955    1.5734 Cl  0  0  0  0  0  0  0  0  0 10  0  0
    0.5507    3.0651   -0.8008 Cl  0  0  0  0  0  0  0  0  0 11  0  0
    1.7240    0.7965    0.5813 Cl  0  0  0  0  0  0  0  0  0 12  0  0
   -0.8502   -0.4324    0.0103 H   0  0  0  0  0  0  0  0  0 13  0  0
  1  2  1  0
  2  3  1  0
  2  6  1  0
  3  4  1  0
  4  5  1  0
  5  6  1  0
  7  8  1  0
  8  9  1  0
  8 13  1  0
  9 11  1  0
  9 12  1  0
  9 10  1  0
M  RAD  1   1   2
M  END
>  <rmg_smiles>  (3) 
[N][C]1O[N][N]O1.[O][CH]C(Cl)(Cl)Cl

>  <rmg_adjacency_list>  (3) 
multiplicity 2
1  Cl u0 p3 c0 {10,S}
2  Cl u0 p3 c0 {10,S}
3  Cl u0 p3 c0 {10,S}
4  O  u0 p2 c0 {7,S} {12,S}
5  O  u0 p2 c0 {8,S} {12,S}
6  O  u0 p2 c0 {11,S}
7  N  u0 p1 c0 {4,S} {8,S}
8  N  u0 p1 c0 {5,S} {7,S}
9  N  u1 p2 c0 {12,S}
10 C  u0 p0 c0 {1,S} {2,S} {3,S} {11,S}
11 C  u0 p0 c0 {6,S} {10,S} {13,S}
12 C  u0 p0 c0 {4,S} {5,S} {9,S}
13 H  u0 p0 c0 {11,S}


>  <multiplicity>  (3) 
2

>  <reaction>  (3) 
rxn_3201

>  <type>  (3) 
ts

>  <role_mapnums>  (3) 
{"*2": 13, "*1": 8, "*3": 1, "*0": 7, "*4": 2}

>  <role_mapidx>  (3) 
{"*2": 12, "*1": 7, "*3": 0, "*0": 6, "*4": 1}

>  <ordered_mapped_smiles>  (3) 
[NH:1][CH:2]1[O:3][NH:4][NH:5][O:6]1.[OH:7][CH:8]([C:9]([Cl:10])([Cl:11])[Cl:12])[H:13]

>  <mol_properties>  (3) 
{"0": {"label": "*3", "atom_type": "N1s"}, "1": {"label": "*4", "atom_type": "Cs"}, "6": {"label": "*0", "atom_type": "O2s"}, "7": {"label": "*1", "atom_type": "Cs"}, "12": {"label": "*2", "atom_type": "H0"}}

>  <level_of_theory>  (3) 
wb97xd/def2tzvp

>  <lot_method>  (3) 
wb97xd

>  <lot_basis>  (3) 
def2tzvp

>  <spin_multiplicity>  (3) 
2.0

>  <optical_isomers>  (3) 
2.0

>  <modes>  (3) 
IdealGasTranslation(mass=(231.908, 'amu')),         NonlinearRotor(             inertia = ([407.353, 1597.38, 1656.22

>  <frequency_value>  (3) 
-1474.74

>  <frequency_units>  (3) 
cm^-1

>  <frequency_list>  (3) 
unknown

>  <arkane_path>  (3) 
/home/calvin/Dropbox/PersonalFolders/Calvin/ATLAS_Converged/NonRMG/rxn_3201/output/rxns/TS0/arkane/output.py

>  <path_exists>  (3) 
True

>  <E0_value>  (3) 
-4949650.0

>  <E0_units>  (3) 
kJ/mol

>  <thermo_class>  (3) 
unknown

>  <Cp0_value>  (3) 
unknown

>  <Cp0_units>  (3) 
unknown

>  <CpInf_value>  (3) 
unknown

>  <CpInf_units>  (3) 
unknown

>  <Tmin_value>  (3) 
unknown

>  <Tmin_units>  (3) 
unknown

>  <Tmax_value>  (3) 
unknown

>  <Tmax_units>  (3) 
unknown

>  <polynomials>  (3) 
unknown

>  <H298_value>  (3) 
unknown

>  <H298_units>  (3) 
unknown

>  <S298_value>  (3) 
unknown

>  <S298_units>  (3) 
unknown

>  <Cp_T_value_list>  (3) 
unknown

>  <Cp_T_units>  (3) 
unknown

>  <T_list>  (3) 
unknown

>  <T_units>  (3) 
unknown

>  <yaml_path>  (3) 
unknown

>  <frequencies_cm1>  (3) 
unknown

>  <ZPE_kJmol>  (3) 
unknown

>  <E_elec_kJmol>  (3) 
unknown

>  <E0_minus_Eelec_plus_ZPE_kJmol>  (3) 
unknown

>  <rxn>  (3) 
unknown

>  <species_type>  (3) 
unknown

>  <species_folder>  (3) 
unknown

>  <frequencies_cm1_list>  (3) 
[]

>  <ts_imag_freq_cm1>  (3) 
-1492.6503

>  <ts_freq_out_path>  (3) 
/home/calvin/Dropbox/PersonalFolders/Calvin/ATLAS_Converged/NonRMG/rxn_3201/output/rxns/TS0/geometry/freq.out

>  <E0_kJmol>  (3) 
-4.94965e+06

>  <H298_kJmol>  (3) 
unknown

$$$$

     RDKit          3D

  6  5  0  0  0  0  0  0  0  0999 V2000
    2.0226    0.3485   -0.2250 O   0  0  0  0  0  0  0  0  0  1  0  0
    1.1426   -0.2224    0.2768 C   0  0  0  0  0  3  0  0  0  2  0  0
   -0.3802   -0.0566    0.0337 C   0  0  0  0  0  0  0  0  0  3  0  0
   -0.7412    1.1812   -1.1785 Cl  0  0  0  0  0  0  0  0  0  4  0  0
   -1.0794    0.3853    1.5956 Cl  0  0  0  0  0  0  0  0  0  5  0  0
   -0.9645   -1.6360   -0.5027 Cl  0  0  0  0  0  0  0  0  0  6  0  0
  1  2  1  0
  2  3  1  0
  3  4  1  0
  3  5  1  0
  3  6  1  0
M  RAD  1   2   2
M  END
>  <rmg_smiles>  (4) 
O[C]C(Cl)(Cl)Cl

>  <rmg_adjacency_list>  (4) 
multiplicity 2
1 Cl u0 p3 c0 {5,S}
2 Cl u0 p3 c0 {5,S}
3 Cl u0 p3 c0 {5,S}
4 O  u0 p2 c0 {6,S}
5 C  u0 p0 c0 {1,S} {2,S} {3,S} {6,S}
6 C  u1 p1 c0 {4,S} {5,S}


>  <multiplicity>  (4) 
2

>  <reaction>  (4) 
rxn_3201

>  <type>  (4) 
r1

>  <role_mapnums>  (4) 
{}

>  <role_mapidx>  (4) 
{}

>  <ordered_mapped_smiles>  (4) 
[OH:1][CH:2][C:3]([Cl:4])([Cl:5])[Cl:6]

>  <level_of_theory>  (4) 
wb97xd/def2tzvp

>  <lot_method>  (4) 
wb97xd

>  <lot_basis>  (4) 
def2tzvp

>  <spin_multiplicity>  (4) 
2.0

>  <optical_isomers>  (4) 
1.0

>  <modes>  (4) 
IdealGasTranslation(mass=(144.901, 'amu')),         NonlinearRotor(             inertia = ([274.842, 303.378, 325.828

>  <frequency_value>  (4) 
unknown

>  <frequency_units>  (4) 
unknown

>  <frequency_list>  (4) 
unknown

>  <arkane_path>  (4) 
/home/calvin/Dropbox/PersonalFolders/Calvin/ATLAS_Converged/NonRMG/rxn_3201/output/Species/rxn_3201_p2_O=sbr-C-sbrCrbr-Cl-rbrrbr-Cl-rbrCl/arkane/output.py

>  <path_exists>  (4) 
True

>  <E0_value>  (4) 
-4022197.211751332

>  <E0_units>  (4) 
kJ/mol

>  <thermo_class>  (4) 
NASA

>  <Cp0_value>  (4) 
33.257888

>  <Cp0_units>  (4) 
J/(mol*K)

>  <CpInf_value>  (4) 
133.031552

>  <CpInf_units>  (4) 
J/(mol*K)

>  <Tmin_value>  (4) 
10.0

>  <Tmin_units>  (4) 
K

>  <Tmax_value>  (4) 
3000.0

>  <Tmax_units>  (4) 
K

>  <polynomials>  (4) 
[{"name": "polynomial1", "class": "NASAPolynomial", "Tmin_value": 10.0, "Tmin_units": "K", "Tmax_value": 394.65782662545547, "Tmax_units": "K", "coeffs": [3.7026445987500067, 0.023484846889204027, 9.546391367965323e-05, -4.0899577813330886e-07, 4.073609841594597e-10, -483758586.7023418, 13.350816833245641]}, {"name": "polynomial2", "class": "NASAPolynomial", "Tmin_value": 394.65782662545547, "Tmin_units": "K", "Tmax_value": 3000.0, "Tmax_units": "K", "coeffs": [7.967414909371843, 0.01614370076119231, -1.3020059357485258e-05, 4.645052046159401e-09, -6.048268499701151e-13, -483759202.7813972, -6.799583628743247]}]

>  <H298_value>  (4) 
-961323.491985425

>  <H298_units>  (4) 
kcal/mol

>  <S298_value>  (4) 
85.2068389379771

>  <S298_units>  (4) 
cal/(mol*K)

>  <Cp_T_value_list>  (4) 
[23.044816769066482, 25.085472411069, 26.483660567688244, 27.60500026243309, 29.17232477444, 30.06898098301339, 30.80755750876833, 31.115213931708205, 31.523555564483612]

>  <Cp_T_units>  (4) 
cal/(mol*K)

>  <T_list>  (4) 
[300.0, 400.0, 500.0, 600.0, 800.0, 1000.0, 1500.0, 2000.0, 2400.0]

>  <T_units>  (4) 
K

>  <yaml_path>  (4) 
/home/calvin/Dropbox/PersonalFolders/Calvin/ATLAS_Converged/NonRMG/rxn_3201/output/Species/rxn_3201_p2_O=sbr-C-sbrCrbr-Cl-rbrrbr-Cl-rbrCl/rxn_3201_p2_O=sbr-C-sbrCrbr-Cl-rbrrbr-Cl-rbrCl.yml

>  <frequencies_cm1>  (4) 
[58.39684316128, 179.57166611799997, 256.70164523223997, 262.07849473779993, 312.1250837499599, 387.5863854314399, 444.10167461504, 588.4182381001599, 785.67925840248, 821.90260596548, 834.0228350552799, 1972.7956116268397]

>  <ZPE_kJmol>  (4) 
41.2913959421872

>  <E_elec_kJmol>  (4) 
-4022238.503147274

>  <E0_minus_Eelec_plus_ZPE_kJmol>  (4) 
0.0

>  <rxn>  (4) 
rxn_3201

>  <species_type>  (4) 
p1

>  <species_folder>  (4) 
rxn_3201_p2_O=sbr-C-sbrCrbr-Cl-rbrrbr-Cl-rbrCl

>  <frequencies_cm1_list>  (4) 
[58.39684316128, 179.57166611799997, 256.70164523223997, 262.07849473779993, 312.1250837499599, 387.5863854314399, 444.10167461504, 588.4182381001599, 785.67925840248, 821.90260596548, 834.0228350552799, 1972.7956116268397]

>  <E0_kJmol>  (4) 
-4.0222e+06

>  <H298_kJmol>  (4) 
-4.02218e+06

$$$$

     RDKit          3D

  6  6  0  0  0  0  0  0  0  0999 V2000
    1.9594    0.0134   -0.3734 N   0  0  0  0  0  2  0  0  0  1  0  0
    0.7437    0.0051   -0.0788 C   0  0  0  0  0  0  0  0  0  2  0  0
   -0.0745    1.0868    0.0233 O   0  0  0  0  0  0  0  0  0  3  0  0
   -1.3223    0.5972    0.3682 N   0  0  0  0  0  0  0  0  0  4  0  0
   -1.2899   -0.6150    0.4676 N   0  0  0  0  0  0  0  0  0  5  0  0
   -0.0165   -1.0874    0.2015 O   0  0  0  0  0  0  0  0  0  6  0  0
  1  2  1  0
  2  3  1  0
  2  6  1  0
  3  4  1  0
  4  5  1  0
  5  6  1  0
M  RAD  1   1   2
M  END
>  <rmg_smiles>  (5) 
[N][C]1O[N][N]O1

>  <rmg_adjacency_list>  (5) 
multiplicity 2
1 O u0 p2 c0 {3,S} {6,S}
2 O u0 p2 c0 {4,S} {6,S}
3 N u0 p1 c0 {1,S} {4,S}
4 N u0 p1 c0 {2,S} {3,S}
5 N u1 p2 c0 {6,S}
6 C u0 p0 c0 {1,S} {2,S} {5,S}


>  <multiplicity>  (5) 
2

>  <reaction>  (5) 
rxn_3201

>  <type>  (5) 
r2

>  <role_mapnums>  (5) 
{}

>  <role_mapidx>  (5) 
{}

>  <ordered_mapped_smiles>  (5) 
[NH:1][CH:2]1[O:3][NH:4][NH:5][O:6]1

>  <level_of_theory>  (5) 
wb97xd/def2tzvp

>  <lot_method>  (5) 
wb97xd

>  <lot_basis>  (5) 
def2tzvp

>  <spin_multiplicity>  (5) 
2.0

>  <optical_isomers>  (5) 
1.0

>  <modes>  (5) 
IdealGasTranslation(mass=(85.999, 'amu')),         NonlinearRotor(             inertia = ([48.4503, 114.569, 163.019

>  <frequency_value>  (5) 
unknown

>  <frequency_units>  (5) 
unknown

>  <frequency_list>  (5) 
unknown

>  <arkane_path>  (5) 
/home/calvin/Dropbox/PersonalFolders/Calvin/ATLAS_Converged/NonRMG/rxn_3201/output/Species/rxn_3201_r1_sbr-N-sbr=c1onno1/arkane/output.py

>  <path_exists>  (5) 
True

>  <E0_value>  (5) 
-925766.1233507326

>  <E0_units>  (5) 
kJ/mol

>  <thermo_class>  (5) 
NASA

>  <Cp0_value>  (5) 
33.257888

>  <Cp0_units>  (5) 
J/(mol*K)

>  <CpInf_value>  (5) 
133.031552

>  <CpInf_units>  (5) 
J/(mol*K)

>  <Tmin_value>  (5) 
10.0

>  <Tmin_units>  (5) 
K

>  <Tmax_value>  (5) 
3000.0

>  <Tmax_units>  (5) 
K

>  <polynomials>  (5) 
[{"name": "polynomial1", "class": "NASAPolynomial", "Tmin_value": 10.0, "Tmin_units": "K", "Tmax_value": 616.0864984642515, "Tmax_units": "K", "coeffs": [3.94812055354869, 0.002870632430470056, 6.601813711413239e-05, -1.1874693803665765e-07, 6.345849341330536e-11, -111343943.32258263, 9.377120967783604]}, {"name": "polynomial2", "class": "NASAPolynomial", "Tmin_value": 616.0864984642515, "Tmin_units": "K", "Tmax_value": 3000.0, "Tmax_units": "K", "coeffs": [2.4544566455499175, 0.02517036301302165, -1.8957852591200607e-05, 6.406820502487897e-09, -7.999640326918053e-13, -111343998.43927236, 13.91872622116066]}]

>  <H298_value>  (5) 
-221260.06538606877

>  <H298_units>  (5) 
kcal/mol

>  <S298_value>  (5) 
69.02430482099071

>  <S298_units>  (5) 
cal/(mol*K)

>  <Cp_T_value_list>  (5) 
[16.01447807468723, 19.24412536395936, 21.88065311931888, 23.870148628394773, 26.6491311769416, 28.365034926557463, 30.06252774055981, 30.64056177383133, 31.185424153668]

>  <Cp_T_units>  (5) 
cal/(mol*K)

>  <T_list>  (5) 
[300.0, 400.0, 500.0, 600.0, 800.0, 1000.0, 1500.0, 2000.0, 2400.0]

>  <T_units>  (5) 
K

>  <yaml_path>  (5) 
/home/calvin/Dropbox/PersonalFolders/Calvin/ATLAS_Converged/NonRMG/rxn_3201/output/Species/rxn_3201_r1_sbr-N-sbr=c1onno1/rxn_3201_r1_sbr-N-sbr=c1onno1.yml

>  <frequencies_cm1>  (5) 
[203.66105062056, 421.06293886643994, 625.6235645639199, 691.3131461350399, 746.0704870767199, 784.21659052932, 934.89884940608, 1008.3206564475199, 1041.0761764239198, 1163.2398452667198, 1617.8480074213599, 1768.29678879724]

>  <ZPE_kJmol>  (5) 
65.82829353267302

>  <E_elec_kJmol>  (5) 
-925831.9516442652

>  <E0_minus_Eelec_plus_ZPE_kJmol>  (5) 
0.0

>  <rxn>  (5) 
rxn_3201

>  <species_type>  (5) 
r0

>  <species_folder>  (5) 
rxn_3201_r1_sbr-N-sbr=c1onno1

>  <frequencies_cm1_list>  (5) 
[203.66105062056, 421.06293886643994, 625.6235645639199, 691.3131461350399, 746.0704870767199, 784.21659052932, 934.89884940608, 1008.3206564475199, 1041.0761764239198, 1163.2398452667198, 1617.8480074213599, 1768.29678879724]

>  <E0_kJmol>  (5) 
-925766

>  <H298_kJmol>  (5) 
-925752

$$$$
