
     RDKit          3D

 13 12  0  0  0  0  0  0  0  0999 V2000
   -0.9704   -1.2716   -1.6389 C   0  0  0  0  0  0  0  0  0  1  0  0
   -0.1529   -0.4658   -0.9699 C   0  0  0  0  0  0  0  0  0  2  0  0
   -0.5888    0.5437    0.0106 C   0  0  0  0  0  0  0  0  0  3  0  0
    0.2496    0.8139    1.1948 C   0  0  0  0  0  0  0  0  0  4  0  0
    1.4795    0.3665    1.4342 C   0  0  0  0  0  0  0  0  0  5  0  0
   -0.5978   -1.9646   -2.3821 H   0  0  0  0  0  0  0  0  0  6  0  0
   -2.0403   -1.2683   -1.4600 H   0  0  0  0  0  0  0  0  0  7  0  0
    0.9098   -0.5084   -1.1904 H   0  0  0  0  0  0  0  0  0  8  0  0
   -0.6286    1.4852   -0.5401 H   0  0  0  0  0  0  0  0  0  9  0  0
   -1.6425    0.4351    0.2737 H   0  0  0  0  0  0  0  0  0 10  0  0
   -0.2004    1.4818    1.9247 H   0  0  0  0  0  0  0  0  0 11  0  0
    1.9911   -0.3148    0.7655 H   0  0  0  0  0  0  0  0  0 12  0  0
    2.0131    0.6631    2.3278 H   0  0  0  0  0  0  0  0  0 13  0  0
  1  7  1  0
  1  6  1  0
  1  2  1  0
  2  8  1  0
  2  3  1  0
  3  4  1  0
  3  9  1  0
  3 10  1  0
  4  5  1  0
  4 11  1  0
  5 12  1  0
  5 13  1  0
M  END
>  <rmg_smiles>  (1) 
[CH2][CH]C[CH][CH2]

>  <rmg_adjacency_list>  (1) 
1  C u0 p0 c0 {2,S} {3,S} {6,S} {7,S}
2  C u0 p0 c0 {1,S} {4,S} {8,S}
3  C u0 p0 c0 {1,S} {5,S} {9,S}
4  C u0 p0 c0 {2,S} {10,S} {11,S}
5  C u0 p0 c0 {3,S} {12,S} {13,S}
6  H u0 p0 c0 {1,S}
7  H u0 p0 c0 {1,S}
8  H u0 p0 c0 {2,S}
9  H u0 p0 c0 {3,S}
10 H u0 p0 c0 {4,S}
11 H u0 p0 c0 {4,S}
12 H u0 p0 c0 {5,S}
13 H u0 p0 c0 {5,S}


>  <multiplicity>  (1) 
1

>  <reaction>  (1) 
rxn_743

>  <type>  (1) 
r1h

>  <role_mapnums>  (1) 
{"r1h_a": 3, "r1h_h": 9}

>  <role_mapidx>  (1) 
{"r1h_a": 2, "r1h_h": 8}

>  <ordered_mapped_smiles>  (1) 
[CH:1]([CH:2]([C:3]([CH:4]([CH:5]([H:12])[H:13])[H:11])([H:9])[H:10])[H:8])([H:6])[H:7]

>  <mol_properties>  (1) 
{"2": {"label": "donator", "atom_type": "Cs"}, "8": {"label": "d_hydrogen", "atom_type": "H0"}}

>  <level_of_theory>  (1) 
wb97xd/def2tzvp

>  <lot_method>  (1) 
wb97xd

>  <lot_basis>  (1) 
def2tzvp

>  <spin_multiplicity>  (1) 
1.0

>  <optical_isomers>  (1) 
2.0

>  <modes>  (1) 
IdealGasTranslation(mass=(68.0626, 'amu')),         NonlinearRotor(             inertia = ([45.0412, 159.938, 187.579

>  <frequency_value>  (1) 
unknown

>  <frequency_units>  (1) 
unknown

>  <frequency_list>  (1) 
unknown

>  <arkane_path>  (1) 
/home/calvin/Dropbox/PersonalFolders/Calvin/HAb_Converged/rxn_743/output/Species/rxn_743_C=CCC=C/arkane/output.py

>  <path_exists>  (1) 
True

>  <E0_value>  (1) 
-512473.3799039456

>  <E0_units>  (1) 
kJ/mol

>  <thermo_class>  (1) 
NASA

>  <Cp0_value>  (1) 
33.257888

>  <Cp0_units>  (1) 
J/(mol*K)

>  <CpInf_value>  (1) 
307.635464

>  <CpInf_units>  (1) 
J/(mol*K)

>  <Tmin_value>  (1) 
10.0

>  <Tmin_units>  (1) 
K

>  <Tmax_value>  (1) 
3000.0

>  <Tmax_units>  (1) 
K

>  <polynomials>  (1) 
[{"name": "polynomial1", "class": "NASAPolynomial", "Tmin_value": 10.0, "Tmin_units": "K", "Tmax_value": 819.4804820196184, "Tmax_units": "K", "coeffs": [3.8786961323103277, 0.01518848526354921, 5.629175519915376e-05, -8.158967068239976e-08, 3.30459758185792e-11, -61636312.679365546, 10.298540277465028]}, {"name": "polynomial2", "class": "NASAPolynomial", "Tmin_value": 819.4804820196184, "Tmin_units": "K", "Tmax_value": 3000.0, "Tmax_units": "K", "coeffs": [0.9713570478533602, 0.04440309225960069, -2.468286623666531e-05, 6.656489578832237e-09, -7.002700885295111e-13, -61636340.62723716, 20.6681030649648]}]

>  <H298_value>  (1) 
-122479.74618776135

>  <H298_units>  (1) 
kcal/mol

>  <S298_value>  (1) 
77.03784100856907

>  <S298_units>  (1) 
cal/(mol*K)

>  <Cp_T_value_list>  (1) 
[22.98452912921813, 28.98342495343222, 34.60231709225981, 39.57761952390819, 47.33114131422195, 52.95468648559353, 61.52407504834919, 65.76395981018108, 67.86608281001313]

>  <Cp_T_units>  (1) 
cal/(mol*K)

>  <T_list>  (1) 
[300.0, 400.0, 500.0, 600.0, 800.0, 1000.0, 1500.0, 2000.0, 2400.0]

>  <T_units>  (1) 
K

>  <yaml_path>  (1) 
/home/calvin/Dropbox/PersonalFolders/Calvin/HAb_Converged/rxn_743/output/Species/rxn_743_C=CCC=C/rxn_743_C=CCC=C.yml

>  <frequencies_cm1>  (1) 
[87.95234797856001, 151.90458226372, 257.19606817528, 416.50326061396, 498.01437636235994, 571.25077480016, 682.49593698416, 887.8393990081199, 919.5923391278, 958.3564712591999, 961.16506825508, 963.55477914644, 1034.0581174268798, 1039.2220903875198, 1080.8909573092799, 1137.2757737718, 1245.9046145488799, 1315.20623039832, 1324.3393208739199, 1346.8492987528798, 1434.93211945252, 1443.44718124932, 1463.70478794332, 1713.3403052812798, 1720.18668964532, 2995.26912481888, 3030.3800207600398, 3111.8568015818396, 3116.1074654949202, 3123.6062134643594, 3128.7427184837197, 3202.1645255251597, 3207.6031778986]

>  <ZPE_kJmol>  (1) 
296.4999886896896

>  <E_elec_kJmol>  (1) 
-512769.8798926352

>  <E0_minus_Eelec_plus_ZPE_kJmol>  (1) 
0.0

>  <rxn>  (1) 
rxn_743

>  <species_type>  (1) 
r0

>  <species_folder>  (1) 
rxn_743_C=CCC=C

>  <frequencies_cm1_list>  (1) 
[87.95234797856001, 151.90458226372, 257.19606817528, 416.50326061396, 498.01437636235994, 571.25077480016, 682.49593698416, 887.8393990081199, 919.5923391278, 958.3564712591999, 961.16506825508, 963.55477914644, 1034.0581174268798, 1039.2220903875198, 1080.8909573092799, 1137.2757737718, 1245.9046145488799, 1315.20623039832, 1324.3393208739199, 1346.8492987528798, 1434.93211945252, 1443.44718124932, 1463.70478794332, 1713.3403052812798, 1720.18668964532, 2995.26912481888, 3030.3800207600398, 3111.8568015818396, 3116.1074654949202, 3123.6062134643594, 3128.7427184837197, 3202.1645255251597, 3207.6031778986]

>  <E0_kJmol>  (1) 
-512473

>  <H298_kJmol>  (1) 
-512455

$$$$

     RDKit          3D

 19 20  0  0  0  0  0  0  0  0999 V2000
   -1.1526   -1.7430    0.5046 H   0  0  0  0  0  0  0  0  0  1  0  0
   -1.2838   -0.8089   -0.0355 C   0  0  0  0  0  0  0  0  0  2  0  0
   -1.1670    0.3209    0.9812 C   0  0  0  0  0  0  0  0  0  3  0  0
    0.1012    1.0519    0.5081 C   0  0  0  0  0  0  0  0  0  4  0  0
    1.3184    0.1519    0.7853 C   0  0  0  0  0  0  0  0  0  5  0  0
    1.1916   -0.9610   -0.2885 C   0  0  0  0  0  0  0  0  0  6  0  0
   -0.1308   -0.6109   -0.9989 C   0  0  0  0  0  0  0  0  0  7  0  0
   -0.0380    0.9301   -1.0164 C   0  0  0  0  0  0  0  0  0  8  0  0
   -2.2639   -1.0028   -0.4636 H   0  0  0  0  0  0  0  0  0  9  0  0
   -1.0770   -0.0354    2.0118 H   0  0  0  0  0  0  0  0  0 10  0  0
   -2.0402    0.9778    0.9418 H   0  0  0  0  0  0  0  0  0 11  0  0
    0.1989    2.0617    0.9036 H   0  0  0  0  0  0  0  0  0 12  0  0
    2.2486    0.7099    0.6693 H   0  0  0  0  0  0  0  0  0 13  0  0
    1.3007   -0.2540    1.7978 H   0  0  0  0  0  0  0  0  0 14  0  0
    2.0175   -0.9180   -1.0006 H   0  0  0  0  0  0  0  0  0 15  0  0
    1.1838   -1.9579    0.1477 H   0  0  0  0  0  0  0  0  0 16  0  0
   -0.2608   -1.1021   -1.9609 H   0  0  0  0  0  0  0  0  0 17  0  0
   -0.9349    1.4138   -1.4078 H   0  0  0  0  0  0  0  0  0 18  0  0
    0.8351    1.2946   -1.5624 H   0  0  0  0  0  0  0  0  0 19  0  0
  1  2  1  0
  2  3  1  0
  2  9  1  0
  2  7  1  0
  3  4  1  0
  3 11  1  0
  3 10  1  0
  4 12  1  0
  4  5  1  0
  4  8  1  0
  5 14  1  0
  5 13  1  0
  5  6  1  0
  6  7  1  0
  6 16  1  0
  6 15  1  0
  7 17  1  0
  7  8  1  0
  8 19  1  0
  8 18  1  0
M  END
>  <rmg_smiles>  (2) 
C1CC2CCC1C2

>  <rmg_adjacency_list>  (2) 
1  C u0 p0 c0 {3,S} {5,S} {6,S} {8,S}
2  C u0 p0 c0 {3,S} {4,S} {7,S} {9,S}
3  C u0 p0 c0 {1,S} {2,S} {18,S} {19,S}
4  C u0 p0 c0 {2,S} {5,S} {10,S} {11,S}
5  C u0 p0 c0 {1,S} {4,S} {12,S} {13,S}
6  C u0 p0 c0 {1,S} {7,S} {14,S} {15,S}
7  C u0 p0 c0 {2,S} {6,S} {16,S} {17,S}
8  H u0 p0 c0 {1,S}
9  H u0 p0 c0 {2,S}
10 H u0 p0 c0 {4,S}
11 H u0 p0 c0 {4,S}
12 H u0 p0 c0 {5,S}
13 H u0 p0 c0 {5,S}
14 H u0 p0 c0 {6,S}
15 H u0 p0 c0 {6,S}
16 H u0 p0 c0 {7,S}
17 H u0 p0 c0 {7,S}
18 H u0 p0 c0 {3,S}
19 H u0 p0 c0 {3,S}


>  <multiplicity>  (2) 
1

>  <reaction>  (2) 
rxn_743

>  <type>  (2) 
r2h

>  <role_mapnums>  (2) 
{"r2h_a": 2, "r2h_h": 1}

>  <role_mapidx>  (2) 
{"r2h_a": 1, "r2h_h": 0}

>  <ordered_mapped_smiles>  (2) 
[H:1][C:2]1([H:9])[C:3]([H:10])([H:11])[C:4]2([H:12])[C:5]([H:13])([H:14])[C:6]([H:15])([H:16])[C:7]1([H:17])[C:8]2([H:18])[H:19]

>  <mol_properties>  (2) 
{"0": {"label": "a_hydrogen", "atom_type": "H0"}, "1": {"label": "acceptor", "atom_type": "Cs"}}

>  <level_of_theory>  (2) 
wb97xd/def2tzvp

>  <lot_method>  (2) 
wb97xd

>  <lot_basis>  (2) 
def2tzvp

>  <spin_multiplicity>  (2) 
1.0

>  <optical_isomers>  (2) 
1.0

>  <modes>  (2) 
IdealGasTranslation(mass=(96.0939, 'amu')),         NonlinearRotor(             inertia = ([135.336, 156.085, 180.607

>  <frequency_value>  (2) 
unknown

>  <frequency_units>  (2) 
unknown

>  <frequency_list>  (2) 
unknown

>  <arkane_path>  (2) 
/home/calvin/Dropbox/PersonalFolders/Calvin/HAb_Converged/rxn_743/output/Species/rxn_743_C1CC2CCC1C2/arkane/output.py

>  <path_exists>  (2) 
True

>  <E0_value>  (2) 
-718893.5806331062

>  <E0_units>  (2) 
kJ/mol

>  <thermo_class>  (2) 
NASA

>  <Cp0_value>  (2) 
33.257888

>  <Cp0_units>  (2) 
J/(mol*K)

>  <CpInf_value>  (2) 
457.29596

>  <CpInf_units>  (2) 
J/(mol*K)

>  <Tmin_value>  (2) 
10.0

>  <Tmin_units>  (2) 
K

>  <Tmax_value>  (2) 
3000.0

>  <Tmax_units>  (2) 
K

>  <polynomials>  (2) 
[{"name": "polynomial1", "class": "NASAPolynomial", "Tmin_value": 10.0, "Tmin_units": "K", "Tmax_value": 662.4178125457627, "Tmax_units": "K", "coeffs": [4.239403585768697, -0.01836828814634063, 0.0002578950712714286, -3.7381328534857083e-07, 1.74409927807895e-10, -86462928.5201383, 9.87949578073462]}, {"name": "polynomial2", "class": "NASAPolynomial", "Tmin_value": 662.4178125457627, "Tmin_units": "K", "Tmax_value": 3000.0, "Tmax_units": "K", "coeffs": [-6.999983226389214, 0.08370637401899614, -5.070273549604008e-05, 1.4717426455763106e-08, -1.6436943039919863e-12, -86462189.9567335, 53.80936817756756]}]

>  <H298_value>  (2) 
-171815.58472962098

>  <H298_units>  (2) 
kcal/mol

>  <S298_value>  (2) 
73.63684385034063

>  <S298_units>  (2) 
cal/(mol*K)

>  <Cp_T_value_list>  (2) 
[26.348838520541374, 37.15309814493767, 47.10273015631388, 55.48382566754763, 68.31505323621754, 77.6548383777145, 91.07076230422987, 97.45683083224962, 100.88536523646154]

>  <Cp_T_units>  (2) 
cal/(mol*K)

>  <T_list>  (2) 
[300.0, 400.0, 500.0, 600.0, 800.0, 1000.0, 1500.0, 2000.0, 2400.0]

>  <T_units>  (2) 
K

>  <yaml_path>  (2) 
/home/calvin/Dropbox/PersonalFolders/Calvin/HAb_Converged/rxn_743/output/Species/rxn_743_C1CC2CCC1C2/rxn_743_C1CC2CCC1C2.yml

>  <frequencies_cm1>  (2) 
[154.85738595131997, 340.37586135643994, 406.75900844488, 450.69398052224, 546.52276066284, 762.7915963309199, 767.83883054112, 803.5128192785198, 822.9257867781599, 828.1927645185999, 886.4866029000799, 904.4231685559199, 936.7804033837599, 957.0723450043599, 964.2964135609999, 966.8990009972799, 969.81060277296, 1009.5017779225599, 1041.98261848616, 1088.6987196181199, 1128.4585646209198, 1135.50409155924, 1162.87589504476, 1186.2717140299999, 1234.53288685896, 1241.50287695876, 1269.37597037264, 1285.33484425632, 1285.7125284489198, 1300.5726846814, 1328.01315802012, 1340.8956224804401, 1342.91451616452, 1343.99949984508, 1472.87221334552, 1484.7314969931601, 1486.79845957448, 1493.51437121744, 1517.5419528521197, 3027.37228118988, 3027.8598371476, 3028.0795806778397, 3039.1354270430397, 3039.76032270716, 3064.0831847106, 3066.3286889102396, 3077.8514902772, 3080.41974278688, 3084.8970172155196, 3085.2334994962002, 3090.71335378156]

>  <ZPE_kJmol>  (2) 
462.7371032824111

>  <E_elec_kJmol>  (2) 
-719356.3177363885

>  <E0_minus_Eelec_plus_ZPE_kJmol>  (2) 
0.0

>  <rxn>  (2) 
rxn_743

>  <species_type>  (2) 
p0

>  <species_folder>  (2) 
rxn_743_C1CC2CCC1C2

>  <frequencies_cm1_list>  (2) 
[154.85738595131997, 340.37586135643994, 406.75900844488, 450.69398052224, 546.52276066284, 762.7915963309199, 767.83883054112, 803.5128192785198, 822.9257867781599, 828.1927645185999, 886.4866029000799, 904.4231685559199, 936.7804033837599, 957.0723450043599, 964.2964135609999, 966.8990009972799, 969.81060277296, 1009.5017779225599, 1041.98261848616, 1088.6987196181199, 1128.4585646209198, 1135.50409155924, 1162.87589504476, 1186.2717140299999, 1234.53288685896, 1241.50287695876, 1269.37597037264, 1285.33484425632, 1285.7125284489198, 1300.5726846814, 1328.01315802012, 1340.8956224804401, 1342.91451616452, 1343.99949984508, 1472.87221334552, 1484.7314969931601, 1486.79845957448, 1493.51437121744, 1517.5419528521197, 3027.37228118988, 3027.8598371476, 3028.0795806778397, 3039.1354270430397, 3039.76032270716, 3064.0831847106, 3066.3286889102396, 3077.8514902772, 3080.41974278688, 3084.8970172155196, 3085.2334994962002, 3090.71335378156]

>  <E0_kJmol>  (2) 
-718894

>  <H298_kJmol>  (2) 
-718876

$$$$

     RDKit          3D

 31 31  0  0  0  0  0  0  0  0999 V2000
   -1.2457   -3.4314   -0.8760 C   0  0  0  0  0  0  0  0  0  1  0  0
   -0.4282   -2.6256   -0.2070 C   0  0  0  0  0  0  0  0  0  2  0  0
   -0.8640   -1.6160    0.7735 C   0  0  0  0  0  0  0  0  0  3  0  0
   -0.0256   -1.3458    1.9577 C   0  0  0  0  0  0  0  0  0  4  0  0
    1.2042   -1.7932    2.1971 C   0  0  0  0  0  0  0  0  0  5  0  0
   -0.8730   -4.1244   -1.6192 H   0  0  0  0  0  0  0  0  0  6  0  0
   -2.3156   -3.4281   -0.6971 H   0  0  0  0  0  0  0  0  0  7  0  0
    0.6346   -2.6682   -0.4275 H   0  0  0  0  0  0  0  0  0  8  0  0
   -0.9101   -0.5259    0.1358 H   0  0  0  0  0  0  0  0  0  9  0  0
   -1.9177   -1.7247    1.0366 H   0  0  0  0  0  0  0  0  0 10  0  0
   -0.4757   -0.6780    2.6875 H   0  0  0  0  0  0  0  0  0 11  0  0
    1.7159   -2.4745    1.5284 H   0  0  0  0  0  0  0  0  0 12  0  0
    1.7378   -1.4967    3.0907 H   0  0  0  0  0  0  0  0  0 13  0  0
   -1.0871    0.7350   -0.5932 C   0  0  0  0  0  3  0  0  0 14  0  0
   -0.9704    1.8648    0.4236 C   0  0  0  0  0  0  0  0  0 15  0  0
    0.2978    2.5958   -0.0496 C   0  0  0  0  0  0  0  0  0 16  0  0
    1.5150    1.6958    0.2276 C   0  0  0  0  0  0  0  0  0 17  0  0
    1.3882    0.5829   -0.8462 C   0  0  0  0  0  0  0  0  0 18  0  0
    0.0659    0.9330   -1.5566 C   0  0  0  0  0  0  0  0  0 19  0  0
    0.1586    2.4740   -1.5741 C   0  0  0  0  0  0  0  0  0 20  0  0
   -2.0673    0.5411   -1.0212 H   0  0  0  0  0  0  0  0  0 21  0  0
   -0.8804    1.5085    1.4541 H   0  0  0  0  0  0  0  0  0 22  0  0
   -1.8436    2.5217    0.3841 H   0  0  0  0  0  0  0  0  0 23  0  0
    0.3956    3.6056    0.3459 H   0  0  0  0  0  0  0  0  0 24  0  0
    2.4453    2.2538    0.1117 H   0  0  0  0  0  0  0  0  0 25  0  0
    1.4974    1.2899    1.2401 H   0  0  0  0  0  0  0  0  0 26  0  0
    2.2141    0.6259   -1.5583 H   0  0  0  0  0  0  0  0  0 27  0  0
    1.3805   -0.4140   -0.4100 H   0  0  0  0  0  0  0  0  0 28  0  0
   -0.0642    0.4418   -2.5186 H   0  0  0  0  0  0  0  0  0 29  0  0
   -0.7382    2.9577   -1.9655 H   0  0  0  0  0  0  0  0  0 30  0  0
    1.0317    2.8385   -2.1201 H   0  0  0  0  0  0  0  0  0 31  0  0
  1  7  1  0
  1  6  1  0
  1  2  1  0
  2  8  1  0
  2  3  1  0
  3  4  1  0
  3  9  1  0
  3 10  1  0
  4 11  1  0
  4  5  1  0
  5 12  1  0
  5 13  1  0
 14 15  1  0
 14 19  1  0
 14 21  1  0
 15 23  1  0
 15 16  1  0
 15 22  1  0
 16 20  1  0
 16 17  1  0
 16 24  1  0
 17 18  1  0
 17 26  1  0
 17 25  1  0
 18 19  1  0
 18 28  1  0
 18 27  1  0
 19 29  1  0
 19 20  1  0
 20 31  1  0
 20 30  1  0
M  RAD  1  14   2
M  END
>  <rmg_smiles>  (3) 
[CH2][CH]C[CH][CH2].[CH]1CC2CCC1C2

>  <rmg_adjacency_list>  (3) 
multiplicity 2
1  C u0 p0 c0 {3,S} {4,S} {6,S} {13,S}
2  C u0 p0 c0 {3,S} {5,S} {8,S} {14,S}
3  C u0 p0 c0 {1,S} {2,S} {19,S} {20,S}
4  C u0 p0 c0 {1,S} {5,S} {15,S} {16,S}
5  C u0 p0 c0 {2,S} {4,S} {17,S} {18,S}
6  C u0 p0 c0 {1,S} {8,S} {21,S} {22,S}
7  C u0 p0 c0 {9,S} {10,S} {23,S} {24,S}
8  C u1 p0 c0 {2,S} {6,S} {25,S}
9  C u0 p0 c0 {7,S} {11,S} {26,S}
10 C u0 p0 c0 {7,S} {12,S} {27,S}
11 C u0 p0 c0 {9,S} {28,S} {29,S}
12 C u0 p0 c0 {10,S} {30,S} {31,S}
13 H u0 p0 c0 {1,S}
14 H u0 p0 c0 {2,S}
15 H u0 p0 c0 {4,S}
16 H u0 p0 c0 {4,S}
17 H u0 p0 c0 {5,S}
18 H u0 p0 c0 {5,S}
19 H u0 p0 c0 {3,S}
20 H u0 p0 c0 {3,S}
21 H u0 p0 c0 {6,S}
22 H u0 p0 c0 {6,S}
23 H u0 p0 c0 {7,S}
24 H u0 p0 c0 {7,S}
25 H u0 p0 c0 {8,S}
26 H u0 p0 c0 {9,S}
27 H u0 p0 c0 {10,S}
28 H u0 p0 c0 {11,S}
29 H u0 p0 c0 {11,S}
30 H u0 p0 c0 {12,S}
31 H u0 p0 c0 {12,S}


>  <multiplicity>  (3) 
2

>  <reaction>  (3) 
rxn_743

>  <type>  (3) 
ts

>  <role_mapnums>  (3) 
{"*2": 9, "*1": 3, "*3": 14, "*0": 2, "*4": 15}

>  <role_mapidx>  (3) 
{"*2": 8, "*1": 2, "*3": 13, "*0": 1, "*4": 14}

>  <ordered_mapped_smiles>  (3) 
[CH:1]([CH:2]([C:3]([CH:4]([CH:5]([H:12])[H:13])[H:11])([H:9])[H:10])[H:8])([H:6])[H:7].[C:14]1([H:21])[C:15]([H:22])([H:23])[C:16]2([H:24])[C:17]([H:25])([H:26])[C:18]([H:27])([H:28])[C:19]1([H:29])[C:20]2([H:30])[H:31]

>  <mol_properties>  (3) 
{"1": {"label": "*0", "atom_type": "Cs"}, "2": {"label": "*1", "atom_type": "Cs"}, "8": {"label": "*2", "atom_type": "H0"}, "13": {"label": "*3", "atom_type": "Cs"}, "14": {"label": "*4", "atom_type": "Cs"}}

>  <level_of_theory>  (3) 
wb97xd/def2tzvp

>  <lot_method>  (3) 
wb97xd

>  <lot_basis>  (3) 
def2tzvp

>  <spin_multiplicity>  (3) 
2.0

>  <optical_isomers>  (3) 
2.0

>  <modes>  (3) 
IdealGasTranslation(mass=(163.149, 'amu')),         NonlinearRotor(             inertia = ([363.349, 830.382, 948.374

>  <frequency_value>  (3) 
-1529.4

>  <frequency_units>  (3) 
cm^-1

>  <frequency_list>  (3) 
unknown

>  <arkane_path>  (3) 
/home/calvin/Dropbox/PersonalFolders/Calvin/HAb_Converged/rxn_743/output/rxns/TS0/arkane/output.py

>  <path_exists>  (3) 
True

>  <E0_value>  (3) 
-1229620.0

>  <E0_units>  (3) 
kJ/mol

>  <thermo_class>  (3) 
unknown

>  <Cp0_value>  (3) 
unknown

>  <Cp0_units>  (3) 
unknown

>  <CpInf_value>  (3) 
unknown

>  <CpInf_units>  (3) 
unknown

>  <Tmin_value>  (3) 
unknown

>  <Tmin_units>  (3) 
unknown

>  <Tmax_value>  (3) 
unknown

>  <Tmax_units>  (3) 
unknown

>  <polynomials>  (3) 
unknown

>  <H298_value>  (3) 
unknown

>  <H298_units>  (3) 
unknown

>  <S298_value>  (3) 
unknown

>  <S298_units>  (3) 
unknown

>  <Cp_T_value_list>  (3) 
unknown

>  <Cp_T_units>  (3) 
unknown

>  <T_list>  (3) 
unknown

>  <T_units>  (3) 
unknown

>  <yaml_path>  (3) 
unknown

>  <frequencies_cm1>  (3) 
unknown

>  <ZPE_kJmol>  (3) 
unknown

>  <E_elec_kJmol>  (3) 
unknown

>  <E0_minus_Eelec_plus_ZPE_kJmol>  (3) 
unknown

>  <rxn>  (3) 
unknown

>  <species_type>  (3) 
unknown

>  <species_folder>  (3) 
unknown

>  <frequencies_cm1_list>  (3) 
[]

>  <ts_imag_freq_cm1>  (3) 
-1547.9718

>  <ts_freq_out_path>  (3) 
/home/calvin/Dropbox/PersonalFolders/Calvin/HAb_Converged/rxn_743/output/rxns/TS0/geometry/freq.out

>  <E0_kJmol>  (3) 
-1.22962e+06

>  <H298_kJmol>  (3) 
unknown

$$$$

     RDKit          3D

 12 11  0  0  0  0  0  0  0  0999 V2000
   -2.3791    0.4612   -0.5870 C   0  0  0  0  0  0  0  0  0  1  0  0
   -1.3422   -0.3138   -0.1893 C   0  0  0  0  0  0  0  0  0  2  0  0
   -1.4723   -1.6058    0.3589 C   0  0  0  0  0  3  0  0  0  3  0  0
   -0.3798   -2.3973    0.7671 C   0  0  0  0  0  0  0  0  0  4  0  0
   -0.4849   -3.6397    1.2956 C   0  0  0  0  0  0  0  0  0  5  0  0
   -2.2205    1.4472   -1.0017 H   0  0  0  0  0  0  0  0  0  6  0  0
   -3.4026    0.1153   -0.5011 H   0  0  0  0  0  0  0  0  0  7  0  0
   -0.3330    0.0765   -0.2952 H   0  0  0  0  0  0  0  0  0  8  0  0
   -2.4723   -2.0151    0.4735 H   0  0  0  0  0  0  0  0  0  9  0  0
    0.6117   -1.9687    0.6436 H   0  0  0  0  0  0  0  0  0 10  0  0
    0.3893   -4.2030    1.5920 H   0  0  0  0  0  0  0  0  0 11  0  0
   -1.4516   -4.1084    1.4378 H   0  0  0  0  0  0  0  0  0 12  0  0
  1  7  1  0
  1  6  1  0
  1  2  1  0
  2  8  1  0
  2  3  1  0
  3  4  1  0
  3  9  1  0
  4  5  1  0
  4 10  1  0
  5 11  1  0
  5 12  1  0
M  RAD  1   3   2
M  END
>  <rmg_smiles>  (4) 
[CH2][CH][CH][CH][CH2]

>  <rmg_adjacency_list>  (4) 
multiplicity 2
1  C u1 p0 c0 {2,S} {3,S} {7,S}
2  C u0 p0 c0 {1,S} {4,S} {6,S}
3  C u0 p0 c0 {1,S} {5,S} {8,S}
4  C u0 p0 c0 {2,S} {9,S} {10,S}
5  C u0 p0 c0 {3,S} {11,S} {12,S}
6  H u0 p0 c0 {2,S}
7  H u0 p0 c0 {1,S}
8  H u0 p0 c0 {3,S}
9  H u0 p0 c0 {4,S}
10 H u0 p0 c0 {4,S}
11 H u0 p0 c0 {5,S}
12 H u0 p0 c0 {5,S}


>  <multiplicity>  (4) 
2

>  <reaction>  (4) 
rxn_743

>  <type>  (4) 
r1

>  <role_mapnums>  (4) 
{}

>  <role_mapidx>  (4) 
{}

>  <ordered_mapped_smiles>  (4) 
[CH:1]([CH:2]([C:3]([CH:4]([CH:5]([H:11])[H:12])[H:10])[H:9])[H:8])([H:6])[H:7]

>  <level_of_theory>  (4) 
wb97xd/def2tzvp

>  <lot_method>  (4) 
wb97xd

>  <lot_basis>  (4) 
def2tzvp

>  <spin_multiplicity>  (4) 
2.0

>  <optical_isomers>  (4) 
1.0

>  <modes>  (4) 
IdealGasTranslation(mass=(67.0548, 'amu')),         NonlinearRotor(             inertia = ([15.7789, 219.5, 235.279

>  <frequency_value>  (4) 
unknown

>  <frequency_units>  (4) 
unknown

>  <frequency_list>  (4) 
unknown

>  <arkane_path>  (4) 
/home/calvin/Dropbox/PersonalFolders/Calvin/HAb_Converged/rxn_743/output/Species/rxn_743_C=C[CH]C=C/arkane/output.py

>  <path_exists>  (4) 
True

>  <E0_value>  (4) 
-510855.5740845963

>  <E0_units>  (4) 
kJ/mol

>  <thermo_class>  (4) 
NASA

>  <Cp0_value>  (4) 
33.257888

>  <Cp0_units>  (4) 
J/(mol*K)

>  <CpInf_value>  (4) 
282.692048

>  <CpInf_units>  (4) 
J/(mol*K)

>  <Tmin_value>  (4) 
10.0

>  <Tmin_units>  (4) 
K

>  <Tmax_value>  (4) 
3000.0

>  <Tmax_units>  (4) 
K

>  <polynomials>  (4) 
[{"name": "polynomial1", "class": "NASAPolynomial", "Tmin_value": 10.0, "Tmin_units": "K", "Tmax_value": 495.4878151432132, "Tmax_units": "K", "coeffs": [3.9321249944863483, 0.00423695957790186, 0.0001349399275202858, -2.634227208589526e-07, 1.6274994210018014e-10, -61441731.262755215, 9.350068005934219]}, {"name": "polynomial2", "class": "NASAPolynomial", "Tmin_value": 495.4878151432132, "Tmin_units": "K", "Tmax_value": 3000.0, "Tmax_units": "K", "coeffs": [0.4670964234865551, 0.045134514665170086, -2.799782078865831e-05, 8.451471558998603e-09, -9.87511530345911e-13, -61441546.54518628, 22.032609970692913]}]

>  <H298_value>  (4) 
-122093.21999312405

>  <H298_units>  (4) 
kcal/mol

>  <S298_value>  (4) 
73.53286475276235

>  <S298_units>  (4) 
cal/(mol*K)

>  <Cp_T_value_list>  (4) 
[22.959522992008456, 28.863462234795744, 33.84135772821174, 38.08705038621403, 44.86868164007071, 49.81479641743779, 57.029271536556216, 60.72193750581066, 62.780551438557175]

>  <Cp_T_units>  (4) 
cal/(mol*K)

>  <T_list>  (4) 
[300.0, 400.0, 500.0, 600.0, 800.0, 1000.0, 1500.0, 2000.0, 2400.0]

>  <T_units>  (4) 
K

>  <yaml_path>  (4) 
/home/calvin/Dropbox/PersonalFolders/Calvin/HAb_Converged/rxn_743/output/Species/rxn_743_C=C[CH]C=C/rxn_743_C=CCHC=C.yml

>  <frequencies_cm1>  (4) 
[152.447074104, 206.60012033752, 248.40632696568, 457.56783282756, 491.88902545691997, 588.7066514835999, 627.8209998663199, 832.6631719619199, 870.4315912219199, 882.064264354, 920.7322586909199, 984.0870652532399, 1007.05026416332, 1023.1327437827599, 1134.86546192448, 1248.1157838219199, 1283.31595057224, 1294.9760916455998, 1300.263670342, 1433.84713577196, 1468.49107671136, 1516.66297873116, 1589.96804702216, 3115.7572492435997, 3116.0319286563995, 3124.4645866293595, 3126.14013104744, 3128.61224576264, 3219.8676136801196, 3219.9431505186403]

>  <ZPE_kJmol>  (4) 
260.8752443523687

>  <E_elec_kJmol>  (4) 
-511116.4493289487

>  <E0_minus_Eelec_plus_ZPE_kJmol>  (4) 
0.0

>  <rxn>  (4) 
rxn_743

>  <species_type>  (4) 
p1

>  <species_folder>  (4) 
rxn_743_C=C[CH]C=C

>  <frequencies_cm1_list>  (4) 
[152.447074104, 206.60012033752, 248.40632696568, 457.56783282756, 491.88902545691997, 588.7066514835999, 627.8209998663199, 832.6631719619199, 870.4315912219199, 882.064264354, 920.7322586909199, 984.0870652532399, 1007.05026416332, 1023.1327437827599, 1134.86546192448, 1248.1157838219199, 1283.31595057224, 1294.9760916455998, 1300.263670342, 1433.84713577196, 1468.49107671136, 1516.66297873116, 1589.96804702216, 3115.7572492435997, 3116.0319286563995, 3124.4645866293595, 3126.14013104744, 3128.61224576264, 3219.8676136801196, 3219.9431505186403]

>  <E0_kJmol>  (4) 
-510856

>  <H298_kJmol>  (4) 
-510838

$$$$

     RDKit          3D

 18 19  0  0  0  0  0  0  0  0999 V2000
    1.0085    0.0884    1.2095 C   0  0  0  0  0  3  0  0  0  1  0  0
    1.2139    1.0410    0.0690 C   0  0  0  0  0  0  0  0  0  2  0  0
    0.2881    0.4324   -1.0019 C   0  0  0  0  0  0  0  0  0  3  0  0
   -1.1714    0.6323   -0.5516 C   0  0  0  0  0  0  0  0  0  4  0  0
   -1.3278   -0.3670    0.6275 C   0  0  0  0  0  0  0  0  0  5  0  0
    0.0899   -0.9908    0.7354 C   0  0  0  0  0  0  0  0  0  6  0  0
    0.4790   -1.0703   -0.7525 C   0  0  0  0  0  0  0  0  0  7  0  0
    1.2161    0.3102    2.2471 H   0  0  0  0  0  0  0  0  0  8  0  0
    2.2567    1.0516   -0.2755 H   0  0  0  0  0  0  0  0  0  9  0  0
    0.9543    2.0764    0.3130 H   0  0  0  0  0  0  0  0  0 10  0  0
    0.4908    0.7813   -2.0131 H   0  0  0  0  0  0  0  0  0 11  0  0
   -1.8596    0.3913   -1.3630 H   0  0  0  0  0  0  0  0  0 12  0  0
   -1.3656    1.6639   -0.2546 H   0  0  0  0  0  0  0  0  0 13  0  0
   -1.6314    0.1167    1.5558 H   0  0  0  0  0  0  0  0  0 14  0  0
   -2.0651   -1.1401    0.3991 H   0  0  0  0  0  0  0  0  0 15  0  0
    0.1199   -1.9185    1.3041 H   0  0  0  0  0  0  0  0  0 16  0  0
   -0.2009   -1.6913   -1.3392 H   0  0  0  0  0  0  0  0  0 17  0  0
    1.5046   -1.4076   -0.9091 H   0  0  0  0  0  0  0  0  0 18  0  0
  1  8  1  0
  1  6  1  0
  1  2  1  0
  2  3  1  0
  2 10  1  0
  2  9  1  0
  3  4  1  0
  3 11  1  0
  3  7  1  0
  4 12  1  0
  4  5  1  0
  4 13  1  0
  5 14  1  0
  5 15  1  0
  5  6  1  0
  6  7  1  0
  6 16  1  0
  7 17  1  0
  7 18  1  0
M  RAD  1   1   2
M  END
>  <rmg_smiles>  (5) 
[CH]1CC2CCC1C2

>  <rmg_adjacency_list>  (5) 
multiplicity 2
1  C u0 p0 c0 {3,S} {4,S} {6,S} {8,S}
2  C u0 p0 c0 {3,S} {5,S} {7,S} {9,S}
3  C u0 p0 c0 {1,S} {2,S} {14,S} {15,S}
4  C u0 p0 c0 {1,S} {5,S} {10,S} {11,S}
5  C u0 p0 c0 {2,S} {4,S} {12,S} {13,S}
6  C u0 p0 c0 {1,S} {7,S} {16,S} {17,S}
7  C u1 p0 c0 {2,S} {6,S} {18,S}
8  H u0 p0 c0 {1,S}
9  H u0 p0 c0 {2,S}
10 H u0 p0 c0 {4,S}
11 H u0 p0 c0 {4,S}
12 H u0 p0 c0 {5,S}
13 H u0 p0 c0 {5,S}
14 H u0 p0 c0 {3,S}
15 H u0 p0 c0 {3,S}
16 H u0 p0 c0 {6,S}
17 H u0 p0 c0 {6,S}
18 H u0 p0 c0 {7,S}


>  <multiplicity>  (5) 
2

>  <reaction>  (5) 
rxn_743

>  <type>  (5) 
r2

>  <role_mapnums>  (5) 
{}

>  <role_mapidx>  (5) 
{}

>  <ordered_mapped_smiles>  (5) 
[C:1]1([H:8])[C:2]([H:9])([H:10])[C:3]2([H:11])[C:4]([H:12])([H:13])[C:5]([H:14])([H:15])[C:6]1([H:16])[C:7]2([H:17])[H:18]

>  <level_of_theory>  (5) 
wb97xd/def2tzvp

>  <lot_method>  (5) 
wb97xd

>  <lot_basis>  (5) 
def2tzvp

>  <spin_multiplicity>  (5) 
2.0

>  <optical_isomers>  (5) 
2.0

>  <modes>  (5) 
IdealGasTranslation(mass=(95.0861, 'amu')),         NonlinearRotor(             inertia = ([132.076, 151.536, 174.491

>  <frequency_value>  (5) 
unknown

>  <frequency_units>  (5) 
unknown

>  <frequency_list>  (5) 
unknown

>  <arkane_path>  (5) 
/home/calvin/Dropbox/PersonalFolders/Calvin/HAb_Converged/rxn_743/output/Species/rxn_743_[CH]1CC2CCC1C2/arkane/output.py

>  <path_exists>  (5) 
True

>  <E0_value>  (5) 
-717174.6605343558

>  <E0_units>  (5) 
kJ/mol

>  <thermo_class>  (5) 
NASA

>  <Cp0_value>  (5) 
33.257888

>  <Cp0_units>  (5) 
J/(mol*K)

>  <CpInf_value>  (5) 
432.352544

>  <CpInf_units>  (5) 
J/(mol*K)

>  <Tmin_value>  (5) 
10.0

>  <Tmin_units>  (5) 
K

>  <Tmax_value>  (5) 
3000.0

>  <Tmax_units>  (5) 
K

>  <polynomials>  (5) 
[{"name": "polynomial1", "class": "NASAPolynomial", "Tmin_value": 10.0, "Tmin_units": "K", "Tmax_value": 627.8575921144865, "Tmax_units": "K", "coeffs": [4.196860558820338, -0.016171105268722473, 0.00026078071603870495, -4.023045641305321e-07, 1.994526736098869e-10, -86256187.80409713, 11.805109187536795]}, {"name": "polynomial2", "class": "NASAPolynomial", "Tmin_value": 627.8575921144865, "Tmin_units": "K", "Tmax_value": 3000.0, "Tmax_units": "K", "coeffs": [-5.155123360865168, 0.0782768443570585, -4.816421106910532e-05, 1.418738663471415e-08, -1.605060631155765e-12, -86255700.7118907, 47.097238820075255]}]

>  <H298_value>  (5) 
-171404.61720790953

>  <H298_units>  (5) 
kcal/mol

>  <S298_value>  (5) 
78.13622956239406

>  <S298_units>  (5) 
cal/(mol*K)

>  <Cp_T_value_list>  (5) 
[26.964676953533466, 37.382989594264686, 46.66797183764434, 54.30346962845638, 66.07017706139216, 74.59940600620303, 86.73655345511231, 92.52402479168427, 95.69953412861575]

>  <Cp_T_units>  (5) 
cal/(mol*K)

>  <T_list>  (5) 
[300.0, 400.0, 500.0, 600.0, 800.0, 1000.0, 1500.0, 2000.0, 2400.0]

>  <T_units>  (5) 
K

>  <yaml_path>  (5) 
/home/calvin/Dropbox/PersonalFolders/Calvin/HAb_Converged/rxn_743/output/Species/rxn_743_[CH]1CC2CCC1C2/rxn_743_CH1CC2CCC1C2.yml

>  <frequencies_cm1>  (5) 
[193.92366543679998, 286.69663711, 376.72968164051997, 444.80210711767995, 471.88549721975994, 575.8310540086, 765.9023406808799, 775.8320014535999, 815.4819746912799, 831.9284045326799, 874.91573263588, 910.4386476962399, 914.8815871982799, 937.18555551764, 949.47059225512, 959.71613435256, 965.2715254764399, 1010.9919137369999, 1035.07443125424, 1037.4504081749599, 1108.18035697096, 1132.1530027230801, 1143.67580409004, 1182.37126636824, 1216.39031164352, 1247.2505436715999, 1266.38883175844, 1275.3365136304, 1286.14514852408, 1310.02165648172, 1334.4475232649597, 1339.6389641668798, 1349.2252756736, 1458.5751499092798, 1478.1460580712799, 1483.955527652, 1507.2689428133997, 2964.07241051012, 3015.2863870266797, 3024.7216248563595, 3032.1173680459997, 3039.44444138244, 3070.4488801022394, 3085.21976552556, 3086.5588276629596, 3090.45927532472, 3091.9356771685193, 3183.2528479538796]

>  <ZPE_kJmol>  (5) 
424.2981940261813

>  <E_elec_kJmol>  (5) 
-717598.958728382

>  <E0_minus_Eelec_plus_ZPE_kJmol>  (5) 
0.0

>  <rxn>  (5) 
rxn_743

>  <species_type>  (5) 
r1

>  <species_folder>  (5) 
rxn_743_[CH]1CC2CCC1C2

>  <frequencies_cm1_list>  (5) 
[193.92366543679998, 286.69663711, 376.72968164051997, 444.80210711767995, 471.88549721975994, 575.8310540086, 765.9023406808799, 775.8320014535999, 815.4819746912799, 831.9284045326799, 874.91573263588, 910.4386476962399, 914.8815871982799, 937.18555551764, 949.47059225512, 959.71613435256, 965.2715254764399, 1010.9919137369999, 1035.07443125424, 1037.4504081749599, 1108.18035697096, 1132.1530027230801, 1143.67580409004, 1182.37126636824, 1216.39031164352, 1247.2505436715999, 1266.38883175844, 1275.3365136304, 1286.14514852408, 1310.02165648172, 1334.4475232649597, 1339.6389641668798, 1349.2252756736, 1458.5751499092798, 1478.1460580712799, 1483.955527652, 1507.2689428133997, 2964.07241051012, 3015.2863870266797, 3024.7216248563595, 3032.1173680459997, 3039.44444138244, 3070.4488801022394, 3085.21976552556, 3086.5588276629596, 3090.45927532472, 3091.9356771685193, 3183.2528479538796]

>  <E0_kJmol>  (5) 
-717175

>  <H298_kJmol>  (5) 
-717157

$$$$
