
     RDKit          3D

  9  8  0  0  0  0  0  0  0  0999 V2000
   -0.5172   -1.4184   -0.9157 C   0  0  0  0  0  0  0  0  0  1  0  0
   -0.1890   -0.7173    0.3768 C   0  0  0  0  0  0  0  0  0  2  0  0
    0.2861    0.9961    0.2757 S   0  0  0  0  0  0  0  0  0  3  0  0
    0.3427   -1.4122   -1.5901 H   0  0  0  0  0  0  0  0  0  4  0  0
   -1.3519   -0.9419   -1.4369 H   0  0  0  0  0  0  0  0  0  5  0  0
   -0.7833   -2.4600   -0.7228 H   0  0  0  0  0  0  0  0  0  6  0  0
    0.6401   -1.2692    0.8180 H   0  0  0  0  0  0  0  0  0  7  0  0
   -0.9687   -0.7946    1.1335 H   0  0  0  0  0  0  0  0  0  8  0  0
    1.2545    0.8417   -0.6389 H   0  0  0  0  0  0  0  0  0  9  0  0
  1  5  1  0
  1  4  1  0
  1  6  1  0
  1  2  1  0
  2  7  1  0
  2  3  1  0
  2  8  1  0
  3  9  1  0
M  END
>  <rmg_smiles>  (1) 
CCS

>  <rmg_adjacency_list>  (1) 
1 S u0 p2 c0 {2,S} {9,S}
2 C u0 p0 c0 {1,S} {3,S} {4,S} {5,S}
3 C u0 p0 c0 {2,S} {6,S} {7,S} {8,S}
4 H u0 p0 c0 {2,S}
5 H u0 p0 c0 {2,S}
6 H u0 p0 c0 {3,S}
7 H u0 p0 c0 {3,S}
8 H u0 p0 c0 {3,S}
9 H u0 p0 c0 {1,S}


>  <multiplicity>  (1) 
1

>  <reaction>  (1) 
rxn_1867

>  <type>  (1) 
r1h

>  <role_mapnums>  (1) 
{"r1h_a": 2, "r1h_h": 7}

>  <role_mapidx>  (1) 
{"r1h_a": 1, "r1h_h": 6}

>  <ordered_mapped_smiles>  (1) 
[C:1]([C:2]([S:3][H:9])([H:7])[H:8])([H:4])([H:5])[H:6]

>  <mol_properties>  (1) 
{"1": {"label": "donator", "atom_type": "Cs"}, "6": {"label": "d_hydrogen", "atom_type": "H0"}}

>  <level_of_theory>  (1) 
wb97xd/def2tzvp

>  <lot_method>  (1) 
wb97xd

>  <lot_basis>  (1) 
def2tzvp

>  <spin_multiplicity>  (1) 
1.0

>  <optical_isomers>  (1) 
2.0

>  <modes>  (1) 
IdealGasTranslation(mass=(62.019, 'amu')),         NonlinearRotor(             inertia = ([17.3187, 95.472, 104.033

>  <frequency_value>  (1) 
unknown

>  <frequency_units>  (1) 
unknown

>  <frequency_list>  (1) 
unknown

>  <arkane_path>  (1) 
/home/calvin/Dropbox/PersonalFolders/Calvin/HAb_Converged/rxn_1867/output/Species/rxn_1867_CCS/arkane/output.py

>  <path_exists>  (1) 
True

>  <E0_value>  (1) 
-1254880.5529024522

>  <E0_units>  (1) 
kJ/mol

>  <thermo_class>  (1) 
NASA

>  <Cp0_value>  (1) 
33.257888

>  <Cp0_units>  (1) 
J/(mol*K)

>  <CpInf_value>  (1) 
207.8618

>  <CpInf_units>  (1) 
J/(mol*K)

>  <Tmin_value>  (1) 
10.0

>  <Tmin_units>  (1) 
K

>  <Tmax_value>  (1) 
3000.0

>  <Tmax_units>  (1) 
K

>  <polynomials>  (1) 
[{"name": "polynomial1", "class": "NASAPolynomial", "Tmin_value": 10.0, "Tmin_units": "K", "Tmax_value": 456.94948299224984, "Tmax_units": "K", "coeffs": [3.912577314484764, 0.006155835235539537, 5.7903825438107485e-05, -1.0305013689181765e-07, 5.821300208274409e-11, -150927266.1091598, 9.021117963799174]}, {"name": "polynomial2", "class": "NASAPolynomial", "Tmin_value": 456.94948299224984, "Tmin_units": "K", "Tmax_value": 3000.0, "Tmax_units": "K", "coeffs": [1.355855578836548, 0.028536757084491292, -1.5565109771775804e-05, 4.138069148493327e-09, -4.3071999280991065e-13, -150927032.45208073, 19.35342692911781]}]

>  <H298_value>  (1) 
-299920.11857407144

>  <H298_units>  (1) 
kcal/mol

>  <S298_value>  (1) 
69.39854649104441

>  <S298_units>  (1) 
cal/(mol*K)

>  <Cp_T_value_list>  (1) 
[17.20889788741788, 20.934361161930582, 24.290211927280414, 27.249513376784144, 32.124901067035445, 35.83897523204632, 41.58221183782978, 44.477584292835935, 45.911331144631184]

>  <Cp_T_units>  (1) 
cal/(mol*K)

>  <T_list>  (1) 
[300.0, 400.0, 500.0, 600.0, 800.0, 1000.0, 1500.0, 2000.0, 2400.0]

>  <T_units>  (1) 
K

>  <yaml_path>  (1) 
/home/calvin/Dropbox/PersonalFolders/Calvin/HAb_Converged/rxn_1867/output/Species/rxn_1867_CCS/rxn_1867_CCS.yml

>  <frequencies_cm1>  (1) 
[202.32885546847996, 256.50936964327997, 331.52431727896, 667.1482247939599, 735.969151671, 875.5955641825599, 988.159187548, 1063.6273562148, 1117.6087278153198, 1273.38628979952, 1303.10660226448, 1402.5542836687198, 1466.616389719, 1477.4456255686398, 1483.85938985752, 2700.25656848636, 3013.3430301811195, 3044.51914353392, 3080.6051513905195, 3088.40604671404, 3107.9357529641197]

>  <ZPE_kJmol>  (1) 
195.4728851436989

>  <E_elec_kJmol>  (1) 
-1255076.025787596

>  <E0_minus_Eelec_plus_ZPE_kJmol>  (1) 
0.0

>  <rxn>  (1) 
rxn_1867

>  <species_type>  (1) 
r0

>  <species_folder>  (1) 
rxn_1867_CCS

>  <frequencies_cm1_list>  (1) 
[202.32885546847996, 256.50936964327997, 331.52431727896, 667.1482247939599, 735.969151671, 875.5955641825599, 988.159187548, 1063.6273562148, 1117.6087278153198, 1273.38628979952, 1303.10660226448, 1402.5542836687198, 1466.616389719, 1477.4456255686398, 1483.85938985752, 2700.25656848636, 3013.3430301811195, 3044.51914353392, 3080.6051513905195, 3088.40604671404, 3107.9357529641197]

>  <E0_kJmol>  (1) 
-1.25488e+06

>  <H298_kJmol>  (1) 
-1.25487e+06

$$$$

     RDKit          3D

 14 13  0  0  0  0  0  0  0  0999 V2000
   -1.0658    0.6856   -0.5148 H   0  0  0  0  0  0  0  0  0  1  0  0
    0.9323    0.5266   -0.9994 C   0  0  0  0  0  0  0  0  0  2  0  0
   -0.2185    0.1351   -0.1059 C   0  0  0  0  0  0  0  0  0  3  0  0
   -0.6117   -1.3184   -0.2028 C   0  0  0  0  0  0  0  0  0  4  0  0
   -0.1100    0.6596    1.3041 C   0  0  0  0  0  0  0  0  0  5  0  0
    0.7478    0.2378   -2.0371 H   0  0  0  0  0  0  0  0  0  6  0  0
    1.1067    1.6044   -0.9680 H   0  0  0  0  0  0  0  0  0  7  0  0
    1.8606    0.0342   -0.6833 H   0  0  0  0  0  0  0  0  0  8  0  0
    0.1696   -1.9648    0.2161 H   0  0  0  0  0  0  0  0  0  9  0  0
   -0.7648   -1.6219   -1.2409 H   0  0  0  0  0  0  0  0  0 10  0  0
   -1.5323   -1.5191    0.3502 H   0  0  0  0  0  0  0  0  0 11  0  0
    0.0252    1.7433    1.3104 H   0  0  0  0  0  0  0  0  0 12  0  0
   -1.0052    0.4257    1.8846 H   0  0  0  0  0  0  0  0  0 13  0  0
    0.7464    0.2131    1.8246 H   0  0  0  0  0  0  0  0  0 14  0  0
  1  3  1  0
  2  7  1  0
  2  8  1  0
  2  6  1  0
  2  3  1  0
  3  4  1  0
  3  5  1  0
  4  9  1  0
  4 10  1  0
  4 11  1  0
  5 12  1  0
  5 14  1  0
  5 13  1  0
M  END
>  <rmg_smiles>  (2) 
CC(C)C

>  <rmg_adjacency_list>  (2) 
1  C u0 p0 c0 {2,S} {3,S} {4,S} {5,S}
2  C u0 p0 c0 {1,S} {6,S} {7,S} {8,S}
3  C u0 p0 c0 {1,S} {9,S} {10,S} {11,S}
4  C u0 p0 c0 {1,S} {12,S} {13,S} {14,S}
5  H u0 p0 c0 {1,S}
6  H u0 p0 c0 {2,S}
7  H u0 p0 c0 {2,S}
8  H u0 p0 c0 {2,S}
9  H u0 p0 c0 {3,S}
10 H u0 p0 c0 {3,S}
11 H u0 p0 c0 {3,S}
12 H u0 p0 c0 {4,S}
13 H u0 p0 c0 {4,S}
14 H u0 p0 c0 {4,S}


>  <multiplicity>  (2) 
1

>  <reaction>  (2) 
rxn_1867

>  <type>  (2) 
r2h

>  <role_mapnums>  (2) 
{"r2h_a": 3, "r2h_h": 1}

>  <role_mapidx>  (2) 
{"r2h_a": 2, "r2h_h": 0}

>  <ordered_mapped_smiles>  (2) 
[H:1][C:3]([C:2]([H:6])([H:7])[H:8])([C:4]([H:9])([H:10])[H:11])[C:5]([H:12])([H:13])[H:14]

>  <mol_properties>  (2) 
{"0": {"label": "a_hydrogen", "atom_type": "H0"}, "2": {"label": "acceptor", "atom_type": "Cs"}}

>  <level_of_theory>  (2) 
wb97xd/def2tzvp

>  <lot_method>  (2) 
wb97xd

>  <lot_basis>  (2) 
def2tzvp

>  <spin_multiplicity>  (2) 
1.0

>  <optical_isomers>  (2) 
1.0

>  <modes>  (2) 
IdealGasTranslation(mass=(58.0782, 'amu')),         NonlinearRotor(             inertia = ([64.4721, 64.4725, 111.215

>  <frequency_value>  (2) 
unknown

>  <frequency_units>  (2) 
unknown

>  <frequency_list>  (2) 
unknown

>  <arkane_path>  (2) 
/home/calvin/Dropbox/PersonalFolders/Calvin/HAb_Converged/rxn_1867/output/Species/rxn_1867_CC[C]C/arkane/output.py

>  <path_exists>  (2) 
True

>  <E0_value>  (2) 
-415716.8551551264

>  <E0_units>  (2) 
kJ/mol

>  <thermo_class>  (2) 
NASA

>  <Cp0_value>  (2) 
33.257888

>  <Cp0_units>  (2) 
J/(mol*K)

>  <CpInf_value>  (2) 
332.57888

>  <CpInf_units>  (2) 
J/(mol*K)

>  <Tmin_value>  (2) 
10.0

>  <Tmin_units>  (2) 
K

>  <Tmax_value>  (2) 
3000.0

>  <Tmax_units>  (2) 
K

>  <polynomials>  (2) 
[{"name": "polynomial1", "class": "NASAPolynomial", "Tmin_value": 10.0, "Tmin_units": "K", "Tmax_value": 537.70968101579, "Tmax_units": "K", "coeffs": [3.862652126005448, 0.009569727541313602, 8.507016254138404e-05, -1.315585128503726e-07, 6.369225026785807e-11, -49999184.32579103, 7.55847255941534]}, {"name": "polynomial2", "class": "NASAPolynomial", "Tmin_value": 537.70968101579, "Tmin_units": "K", "Tmax_value": 3000.0, "Tmax_units": "K", "coeffs": [-1.5218024537655725, 0.049623963895308654, -2.666412450794597e-05, 6.970886139277824e-09, -7.141023665301806e-13, -49998605.2639238, 30.194708211335772]}]

>  <H298_value>  (2) 
-99354.53702269775

>  <H298_units>  (2) 
kcal/mol

>  <S298_value>  (2) 
69.86718993781113

>  <S298_units>  (2) 
cal/(mol*K)

>  <Cp_T_value_list>  (2) 
[22.562171085966483, 28.839425624644306, 34.67875667987822, 39.87658687088267, 48.46583299679088, 55.03532775045977, 65.24289221010905, 70.36912550997798, 72.85830531721301]

>  <Cp_T_units>  (2) 
cal/(mol*K)

>  <T_list>  (2) 
[300.0, 400.0, 500.0, 600.0, 800.0, 1000.0, 1500.0, 2000.0, 2400.0]

>  <T_units>  (2) 
K

>  <yaml_path>  (2) 
/home/calvin/Dropbox/PersonalFolders/Calvin/HAb_Converged/rxn_1867/output/Species/rxn_1867_CC[C]C/rxn_1867_CCCC.yml

>  <frequencies_cm1>  (2) 
[211.04305983956, 262.18149951759995, 263.45189180179995, 369.0386580821199, 369.53308102515996, 434.75570759452, 803.952306339, 924.30309105732, 924.6121053967199, 953.1306954306799, 976.0046235315998, 976.1762981645999, 1191.0442688274, 1191.0854707393198, 1204.0572060088, 1353.00898458492, 1353.07765443812, 1393.1396467949999, 1393.2769865014, 1417.2427652681997, 1467.474762884, 1473.9022611435198, 1474.1426056297198, 1492.4362545221998, 1492.55299327264, 1500.8757794804799, 2997.8511112992, 3000.10348248416, 3000.28202410248, 3005.6108047107996, 3068.7046658309596, 3068.8763404639594, 3077.4875400552396, 3079.99398969704, 3083.4961522102394, 3083.8601024322]

>  <ZPE_kJmol>  (2) 
342.9202171394915

>  <E_elec_kJmol>  (2) 
-416059.7753722659

>  <E0_minus_Eelec_plus_ZPE_kJmol>  (2) 
0.0

>  <rxn>  (2) 
rxn_1867

>  <species_type>  (2) 
p0

>  <species_folder>  (2) 
rxn_1867_CC[C]C

>  <frequencies_cm1_list>  (2) 
[211.04305983956, 262.18149951759995, 263.45189180179995, 369.0386580821199, 369.53308102515996, 434.75570759452, 803.952306339, 924.30309105732, 924.6121053967199, 953.1306954306799, 976.0046235315998, 976.1762981645999, 1191.0442688274, 1191.0854707393198, 1204.0572060088, 1353.00898458492, 1353.07765443812, 1393.1396467949999, 1393.2769865014, 1417.2427652681997, 1467.474762884, 1473.9022611435198, 1474.1426056297198, 1492.4362545221998, 1492.55299327264, 1500.8757794804799, 2997.8511112992, 3000.10348248416, 3000.28202410248, 3005.6108047107996, 3068.7046658309596, 3068.8763404639594, 3077.4875400552396, 3079.99398969704, 3083.4961522102394, 3083.8601024322]

>  <E0_kJmol>  (2) 
-415717

>  <H298_kJmol>  (2) 
-415699

$$$$

     RDKit          3D

 22 20  0  0  0  0  0  0  0  0999 V2000
   -1.3929   -0.2583   -1.8225 C   0  0  0  0  0  0  0  0  0  1  0  0
   -1.0647    0.4428   -0.5300 C   0  0  0  0  0  3  0  0  0  2  0  0
   -0.5896    2.1562   -0.6311 S   0  0  0  0  0  0  0  0  0  3  0  0
   -0.5331   -0.2520   -2.4970 H   0  0  0  0  0  0  0  0  0  4  0  0
   -2.2276    0.2182   -2.3437 H   0  0  0  0  0  0  0  0  0  5  0  0
   -1.6590   -1.2999   -1.6297 H   0  0  0  0  0  0  0  0  0  6  0  0
   -0.0369   -0.2414    0.0168 H   0  0  0  0  0  0  0  0  0  7  0  0
   -1.8444    0.3655    0.2267 H   0  0  0  0  0  0  0  0  0  8  0  0
    0.3788    2.0019   -1.5457 H   0  0  0  0  0  0  0  0  0  9  0  0
    2.1549   -0.5262   -0.3742 C   0  0  0  0  0  0  0  0  0 10  0  0
    1.0041   -0.9177    0.5192 C   0  0  0  0  0  0  0  0  0 11  0  0
    0.6109   -2.3712    0.4223 C   0  0  0  0  0  0  0  0  0 12  0  0
    1.1126   -0.3932    1.9293 C   0  0  0  0  0  0  0  0  0 13  0  0
    1.9704   -0.8150   -1.4120 H   0  0  0  0  0  0  0  0  0 14  0  0
    2.3293    0.5515   -0.3428 H   0  0  0  0  0  0  0  0  0 15  0  0
    3.0832   -1.0186   -0.0582 H   0  0  0  0  0  0  0  0  0 16  0  0
    1.3922   -3.0176    0.8413 H   0  0  0  0  0  0  0  0  0 17  0  0
    0.4578   -2.6747   -0.6158 H   0  0  0  0  0  0  0  0  0 18  0  0
   -0.3097   -2.5719    0.9754 H   0  0  0  0  0  0  0  0  0 19  0  0
    1.2478    0.6905    1.9355 H   0  0  0  0  0  0  0  0  0 20  0  0
    0.2174   -0.6271    2.5098 H   0  0  0  0  0  0  0  0  0 21  0  0
    1.9690   -0.8398    2.4498 H   0  0  0  0  0  0  0  0  0 22  0  0
  1  4  1  0
  1  5  1  0
  1  6  1  0
  1  2  1  0
  2  8  1  0
  2  3  1  0
  3  9  1  0
  7 11  1  0
 10 16  1  0
 10 15  1  0
 10 11  1  0
 10 14  1  0
 11 13  1  0
 11 12  1  0
 12 19  1  0
 12 17  1  0
 12 18  1  0
 13 20  1  0
 13 21  1  0
 13 22  1  0
M  RAD  1   2   2
M  END
>  <rmg_smiles>  (3) 
CC(C)C.C[CH]S

>  <rmg_adjacency_list>  (3) 
multiplicity 2
1  S u0 p2 c0 {7,S} {22,S}
2  C u0 p0 c0 {3,S} {4,S} {5,S} {8,S}
3  C u0 p0 c0 {2,S} {9,S} {10,S} {11,S}
4  C u0 p0 c0 {2,S} {12,S} {13,S} {14,S}
5  C u0 p0 c0 {2,S} {15,S} {16,S} {17,S}
6  C u0 p0 c0 {7,S} {18,S} {19,S} {20,S}
7  C u1 p0 c0 {1,S} {6,S} {21,S}
8  H u0 p0 c0 {2,S}
9  H u0 p0 c0 {3,S}
10 H u0 p0 c0 {3,S}
11 H u0 p0 c0 {3,S}
12 H u0 p0 c0 {4,S}
13 H u0 p0 c0 {4,S}
14 H u0 p0 c0 {4,S}
15 H u0 p0 c0 {5,S}
16 H u0 p0 c0 {5,S}
17 H u0 p0 c0 {5,S}
18 H u0 p0 c0 {6,S}
19 H u0 p0 c0 {6,S}
20 H u0 p0 c0 {6,S}
21 H u0 p0 c0 {7,S}
22 H u0 p0 c0 {1,S}


>  <multiplicity>  (3) 
2

>  <reaction>  (3) 
rxn_1867

>  <type>  (3) 
ts

>  <role_mapnums>  (3) 
{"*2": 7, "*1": 2, "*3": 11, "*0": 10, "*4": 3}

>  <role_mapidx>  (3) 
{"*2": 6, "*1": 1, "*3": 10, "*0": 9, "*4": 2}

>  <ordered_mapped_smiles>  (3) 
[C:1]([C:2]([S:3][H:9])[H:8])([H:4])([H:5])[H:6].[H:7][C:11]([C:10]([H:14])([H:15])[H:16])([C:12]([H:17])([H:18])[H:19])[C:13]([H:20])([H:21])[H:22]

>  <mol_properties>  (3) 
{"1": {"label": "*1", "atom_type": "Cs"}, "2": {"label": "*4", "atom_type": "S2s"}, "6": {"label": "*2", "atom_type": "H0"}, "9": {"label": "*0", "atom_type": "Cs"}, "10": {"label": "*3", "atom_type": "Cs"}}

>  <level_of_theory>  (3) 
wb97xd/def2tzvp

>  <lot_method>  (3) 
wb97xd

>  <lot_basis>  (3) 
def2tzvp

>  <spin_multiplicity>  (3) 
2.0

>  <optical_isomers>  (3) 
2.0

>  <modes>  (3) 
IdealGasTranslation(mass=(119.089, 'amu')),         NonlinearRotor(             inertia = ([202.191, 440.805, 515.167

>  <frequency_value>  (3) 
-1710.82

>  <frequency_units>  (3) 
cm^-1

>  <frequency_list>  (3) 
unknown

>  <arkane_path>  (3) 
/home/calvin/Dropbox/PersonalFolders/Calvin/HAb_Converged/rxn_1867/output/rxns/TS0/arkane/output.py

>  <path_exists>  (3) 
True

>  <E0_value>  (3) 
-1668850.0

>  <E0_units>  (3) 
kJ/mol

>  <thermo_class>  (3) 
unknown

>  <Cp0_value>  (3) 
unknown

>  <Cp0_units>  (3) 
unknown

>  <CpInf_value>  (3) 
unknown

>  <CpInf_units>  (3) 
unknown

>  <Tmin_value>  (3) 
unknown

>  <Tmin_units>  (3) 
unknown

>  <Tmax_value>  (3) 
unknown

>  <Tmax_units>  (3) 
unknown

>  <polynomials>  (3) 
unknown

>  <H298_value>  (3) 
unknown

>  <H298_units>  (3) 
unknown

>  <S298_value>  (3) 
unknown

>  <S298_units>  (3) 
unknown

>  <Cp_T_value_list>  (3) 
unknown

>  <Cp_T_units>  (3) 
unknown

>  <T_list>  (3) 
unknown

>  <T_units>  (3) 
unknown

>  <yaml_path>  (3) 
unknown

>  <frequencies_cm1>  (3) 
unknown

>  <ZPE_kJmol>  (3) 
unknown

>  <E_elec_kJmol>  (3) 
unknown

>  <E0_minus_Eelec_plus_ZPE_kJmol>  (3) 
unknown

>  <rxn>  (3) 
unknown

>  <species_type>  (3) 
unknown

>  <species_folder>  (3) 
unknown

>  <frequencies_cm1_list>  (3) 
[]

>  <ts_imag_freq_cm1>  (3) 
-1731.6031

>  <ts_freq_out_path>  (3) 
/home/calvin/Dropbox/PersonalFolders/Calvin/HAb_Converged/rxn_1867/output/rxns/TS0/geometry/freq.out

>  <E0_kJmol>  (3) 
-1.66885e+06

>  <H298_kJmol>  (3) 
unknown

$$$$

     RDKit          3D

  8  7  0  0  0  0  0  0  0  0999 V2000
   -1.0607    0.1793   -0.1423 C   0  0  0  0  0  0  0  0  0  1  0  0
    0.2796    0.0327    0.4820 C   0  0  0  0  0  3  0  0  0  2  0  0
    0.8817   -1.4663    1.0791 S   0  0  0  0  0  0  0  0  0  3  0  0
   -1.3043    1.2328   -0.2850 H   0  0  0  0  0  0  0  0  0  4  0  0
   -1.8444   -0.2641    0.4799 H   0  0  0  0  0  0  0  0  0  5  0  0
   -1.1164   -0.3100   -1.1237 H   0  0  0  0  0  0  0  0  0  6  0  0
    1.0449    0.7826    0.3391 H   0  0  0  0  0  0  0  0  0  7  0  0
   -0.2993   -2.0726    1.2718 H   0  0  0  0  0  0  0  0  0  8  0  0
  1  5  1  0
  1  4  1  0
  1  6  1  0
  1  2  1  0
  2  7  1  0
  2  3  1  0
  3  8  1  0
M  RAD  1   2   2
M  END
>  <rmg_smiles>  (4) 
C[CH]S

>  <rmg_adjacency_list>  (4) 
multiplicity 2
1 S u0 p2 c0 {3,S} {8,S}
2 C u0 p0 c0 {3,S} {4,S} {5,S} {6,S}
3 C u1 p0 c0 {1,S} {2,S} {7,S}
4 H u0 p0 c0 {2,S}
5 H u0 p0 c0 {2,S}
6 H u0 p0 c0 {2,S}
7 H u0 p0 c0 {3,S}
8 H u0 p0 c0 {1,S}


>  <multiplicity>  (4) 
2

>  <reaction>  (4) 
rxn_1867

>  <type>  (4) 
r1

>  <role_mapnums>  (4) 
{}

>  <role_mapidx>  (4) 
{}

>  <ordered_mapped_smiles>  (4) 
[C:1]([C:2]([S:3][H:8])[H:7])([H:4])([H:5])[H:6]

>  <level_of_theory>  (4) 
wb97xd/def2tzvp

>  <lot_method>  (4) 
wb97xd

>  <lot_basis>  (4) 
def2tzvp

>  <spin_multiplicity>  (4) 
2.0

>  <optical_isomers>  (4) 
2.0

>  <modes>  (4) 
IdealGasTranslation(mass=(61.0112, 'amu')),         NonlinearRotor(             inertia = ([13.046, 92.7553, 102.244

>  <frequency_value>  (4) 
unknown

>  <frequency_units>  (4) 
unknown

>  <frequency_list>  (4) 
unknown

>  <arkane_path>  (4) 
/home/calvin/Dropbox/PersonalFolders/Calvin/HAb_Converged/rxn_1867/output/Species/rxn_1867_C[CH]S/arkane/output.py

>  <path_exists>  (4) 
True

>  <E0_value>  (4) 
-1253184.5981845327

>  <E0_units>  (4) 
kJ/mol

>  <thermo_class>  (4) 
NASA

>  <Cp0_value>  (4) 
33.257888

>  <Cp0_units>  (4) 
J/(mol*K)

>  <CpInf_value>  (4) 
182.918384

>  <CpInf_units>  (4) 
J/(mol*K)

>  <Tmin_value>  (4) 
10.0

>  <Tmin_units>  (4) 
K

>  <Tmax_value>  (4) 
3000.0

>  <Tmax_units>  (4) 
K

>  <polynomials>  (4) 
[{"name": "polynomial1", "class": "NASAPolynomial", "Tmin_value": 10.0, "Tmin_units": "K", "Tmax_value": 413.6242631988178, "Tmax_units": "K", "coeffs": [3.7950584132268186, 0.01645609393952305, 9.744895768350024e-06, -3.205069347459809e-08, 2.0964565037874887e-11, -150723288.95141077, 9.662601934586593]}, {"name": "polynomial2", "class": "NASAPolynomial", "Tmin_value": 413.6242631988178, "Tmin_units": "K", "Tmax_value": 3000.0, "Tmax_units": "K", "coeffs": [3.17190737716937, 0.022482327930256327, -1.2109053360397742e-05, 3.1727123688764314e-09, -3.2486493929115805e-13, -150723237.401177, 12.11883130745573]}]

>  <H298_value>  (4) 
-299514.5354095517

>  <H298_units>  (4) 
kcal/mol

>  <S298_value>  (4) 
72.29183074382266

>  <S298_units>  (4) 
cal/(mol*K)

>  <Cp_T_value_list>  (4) 
[17.712709725111154, 20.710920107158717, 23.37370765378627, 25.72488158048582, 29.608064561660598, 32.57633454756887, 37.18720075710309, 39.514030818864796, 40.66357833679563]

>  <Cp_T_units>  (4) 
cal/(mol*K)

>  <T_list>  (4) 
[300.0, 400.0, 500.0, 600.0, 800.0, 1000.0, 1500.0, 2000.0, 2400.0]

>  <T_units>  (4) 
K

>  <yaml_path>  (4) 
/home/calvin/Dropbox/PersonalFolders/Calvin/HAb_Converged/rxn_1867/output/Species/rxn_1867_C[CH]S/rxn_1867_CCHS.yml

>  <frequencies_cm1>  (4) 
[128.26841879228, 206.51084952836, 328.47537579688, 383.05417512024, 719.5501897708799, 910.4180467402799, 999.9292003864799, 1062.5698404755199, 1120.95981665148, 1318.91440247112, 1398.79117571336, 1459.19317858808, 1469.92627664324, 2677.2315667084, 2962.17025557648, 3023.7808478675192, 3086.80603913448, 3183.9601474418396]

>  <ZPE_kJmol>  (4) 
158.1494145024119

>  <E_elec_kJmol>  (4) 
-1253342.747599035

>  <E0_minus_Eelec_plus_ZPE_kJmol>  (4) 
0.0

>  <rxn>  (4) 
rxn_1867

>  <species_type>  (4) 
p1

>  <species_folder>  (4) 
rxn_1867_C[CH]S

>  <frequencies_cm1_list>  (4) 
[128.26841879228, 206.51084952836, 328.47537579688, 383.05417512024, 719.5501897708799, 910.4180467402799, 999.9292003864799, 1062.5698404755199, 1120.95981665148, 1318.91440247112, 1398.79117571336, 1459.19317858808, 1469.92627664324, 2677.2315667084, 2962.17025557648, 3023.7808478675192, 3086.80603913448, 3183.9601474418396]

>  <E0_kJmol>  (4) 
-1.25318e+06

>  <H298_kJmol>  (4) 
-1.25317e+06

$$$$

     RDKit          3D

 13 12  0  0  0  0  0  0  0  0999 V2000
   -1.3649   -0.5968   -0.3477 C   0  0  0  0  0  0  0  0  0  1  0  0
   -0.1601   -0.2776    0.4669 C   0  0  0  0  0  3  0  0  0  2  0  0
    1.1242   -0.9571    0.1415 C   0  0  0  0  0  0  0  0  0  3  0  0
   -0.1188    1.0131    1.2080 C   0  0  0  0  0  0  0  0  0  4  0  0
   -1.4265   -1.6633   -0.5768 H   0  0  0  0  0  0  0  0  0  5  0  0
   -2.2858   -0.3004    0.1601 H   0  0  0  0  0  0  0  0  0  6  0  0
   -1.3532   -0.0670   -1.3139 H   0  0  0  0  0  0  0  0  0  7  0  0
    1.6174   -0.4964   -0.7296 H   0  0  0  0  0  0  0  0  0  8  0  0
    0.9723   -2.0105   -0.1062 H   0  0  0  0  0  0  0  0  0  9  0  0
    1.8338   -0.8976    0.9702 H   0  0  0  0  0  0  0  0  0 10  0  0
   -1.0852    1.2509    1.6591 H   0  0  0  0  0  0  0  0  0 11  0  0
    0.6358    1.0011    1.9982 H   0  0  0  0  0  0  0  0  0 12  0  0
    0.1343    1.8546    0.5431 H   0  0  0  0  0  0  0  0  0 13  0  0
  1  5  1  0
  1  7  1  0
  1  6  1  0
  1  2  1  0
  2  3  1  0
  2  4  1  0
  3  9  1  0
  3 10  1  0
  3  8  1  0
  4 13  1  0
  4 12  1  0
  4 11  1  0
M  RAD  1   2   2
M  END
>  <rmg_smiles>  (5) 
C[C](C)C

>  <rmg_adjacency_list>  (5) 
multiplicity 2
1  C u0 p0 c0 {4,S} {5,S} {6,S} {7,S}
2  C u0 p0 c0 {4,S} {8,S} {9,S} {10,S}
3  C u0 p0 c0 {4,S} {11,S} {12,S} {13,S}
4  C u1 p0 c0 {1,S} {2,S} {3,S}
5  H u0 p0 c0 {1,S}
6  H u0 p0 c0 {1,S}
7  H u0 p0 c0 {1,S}
8  H u0 p0 c0 {2,S}
9  H u0 p0 c0 {2,S}
10 H u0 p0 c0 {2,S}
11 H u0 p0 c0 {3,S}
12 H u0 p0 c0 {3,S}
13 H u0 p0 c0 {3,S}


>  <multiplicity>  (5) 
2

>  <reaction>  (5) 
rxn_1867

>  <type>  (5) 
r2

>  <role_mapnums>  (5) 
{}

>  <role_mapidx>  (5) 
{}

>  <ordered_mapped_smiles>  (5) 
[C:1]([C:2]([C:3]([H:8])([H:9])[H:10])[C:4]([H:11])([H:12])[H:13])([H:5])([H:6])[H:7]

>  <level_of_theory>  (5) 
wb97xd/def2tzvp

>  <lot_method>  (5) 
wb97xd

>  <lot_basis>  (5) 
def2tzvp

>  <spin_multiplicity>  (5) 
2.0

>  <optical_isomers>  (5) 
1.0

>  <modes>  (5) 
IdealGasTranslation(mass=(57.0704, 'amu')),         NonlinearRotor(             inertia = ([62.748, 62.752, 115.629

>  <frequency_value>  (5) 
unknown

>  <frequency_units>  (5) 
unknown

>  <frequency_list>  (5) 
unknown

>  <arkane_path>  (5) 
/home/calvin/Dropbox/PersonalFolders/Calvin/HAb_Converged/rxn_1867/output/Species/rxn_1867_C[C][C]C/arkane/output.py

>  <path_exists>  (5) 
True

>  <E0_value>  (5) 
-414011.8554271935

>  <E0_units>  (5) 
kJ/mol

>  <thermo_class>  (5) 
NASA

>  <Cp0_value>  (5) 
33.257888

>  <Cp0_units>  (5) 
J/(mol*K)

>  <CpInf_value>  (5) 
307.635464

>  <CpInf_units>  (5) 
J/(mol*K)

>  <Tmin_value>  (5) 
10.0

>  <Tmin_units>  (5) 
K

>  <Tmax_value>  (5) 
3000.0

>  <Tmax_units>  (5) 
K

>  <polynomials>  (5) 
[{"name": "polynomial1", "class": "NASAPolynomial", "Tmin_value": 10.0, "Tmin_units": "K", "Tmax_value": 460.9521225104531, "Tmax_units": "K", "coeffs": [3.6294419597366696, 0.03763551124576046, -8.8295051315014e-05, 2.2745090628617897e-07, -1.9062859879260736e-10, -49794124.118394464, 8.373103369741717]}, {"name": "polynomial2", "class": "NASAPolynomial", "Tmin_value": 460.9521225104531, "Tmin_units": "K", "Tmax_value": 3000.0, "Tmax_units": "K", "coeffs": [-0.4812373092059736, 0.04578849455234794, -2.5277973684898383e-05, 6.7988422287591644e-09, -7.153418707507398e-13, -49793452.80387519, 28.19233899883356]}]

>  <H298_value>  (5) 
-98946.57174515093

>  <H298_units>  (5) 
kcal/mol

>  <S298_value>  (5) 
75.46582992327207

>  <S298_units>  (5) 
cal/(mol*K)

>  <Cp_T_value_list>  (5) 
[22.993218308112137, 28.284315758413637, 33.58113288644255, 38.28876060868702, 46.02302366325115, 51.891493956435866, 60.90934587168235, 65.43697117929823, 67.6919830810739]

>  <Cp_T_units>  (5) 
cal/(mol*K)

>  <T_list>  (5) 
[300.0, 400.0, 500.0, 600.0, 800.0, 1000.0, 1500.0, 2000.0, 2400.0]

>  <T_units>  (5) 
K

>  <yaml_path>  (5) 
/home/calvin/Dropbox/PersonalFolders/Calvin/HAb_Converged/rxn_1867/output/Species/rxn_1867_C[C][C]C/rxn_1867_CCCC.yml

>  <frequencies_cm1>  (5) 
[125.56969356152, 129.41520534071998, 129.55254504712, 257.14113229272, 382.5322842359199, 382.9031014432, 764.06198861512, 930.3666390948798, 930.39410703616, 963.95993128032, 1004.16613032892, 1004.59188341876, 1087.74420865864, 1293.58896061096, 1293.7743692146, 1387.15163559596, 1387.5773886858, 1410.66419333164, 1453.5210487137597, 1456.6386600490398, 1456.74166482884, 1475.73574622396, 1477.9949843942402, 1478.2696638070397, 2923.3237196212394, 2923.6876698432, 2931.1795508273203, 3026.6169128046795, 3027.0426658945194, 3028.1070486191197, 3072.44030584504, 3076.3132855655194, 3076.69783674344]

>  <ZPE_kJmol>  (5) 
303.5493044362069

>  <E_elec_kJmol>  (5) 
-414315.4047316297

>  <E0_minus_Eelec_plus_ZPE_kJmol>  (5) 
0.0

>  <rxn>  (5) 
rxn_1867

>  <species_type>  (5) 
r1

>  <species_folder>  (5) 
rxn_1867_C[C][C]C

>  <frequencies_cm1_list>  (5) 
[125.56969356152, 129.41520534071998, 129.55254504712, 257.14113229272, 382.5322842359199, 382.9031014432, 764.06198861512, 930.3666390948798, 930.39410703616, 963.95993128032, 1004.16613032892, 1004.59188341876, 1087.74420865864, 1293.58896061096, 1293.7743692146, 1387.15163559596, 1387.5773886858, 1410.66419333164, 1453.5210487137597, 1456.6386600490398, 1456.74166482884, 1475.73574622396, 1477.9949843942402, 1478.2696638070397, 2923.3237196212394, 2923.6876698432, 2931.1795508273203, 3026.6169128046795, 3027.0426658945194, 3028.1070486191197, 3072.44030584504, 3076.3132855655194, 3076.69783674344]

>  <E0_kJmol>  (5) 
-414012

>  <H298_kJmol>  (5) 
-413992

$$$$
