
     RDKit          3D

 13 12  0  0  0  0  0  0  0  0999 V2000
   -0.0000   -0.3438   -2.1409 C   0  0  0  0  0  2  0  0  0  1  0  0
   -0.0000   -0.2848   -0.9429 C   0  0  0  0  0  2  0  0  0  2  0  0
   -0.0000   -0.2297    0.5026 C   0  0  0  0  0  0  0  0  0  3  0  0
   -1.2738    0.3709    1.0796 C   0  0  0  0  0  0  0  0  0  4  0  0
    1.2738    0.3709    1.0796 C   0  0  0  0  0  0  0  0  0  5  0  0
   -0.0000   -0.3935   -3.2031 H   0  0  0  0  0  0  0  0  0  6  0  0
   -0.0000   -1.2678    0.8349 H   0  0  0  0  0  0  0  0  0  7  0  0
   -2.1576   -0.1305    0.6865 H   0  0  0  0  0  0  0  0  0  8  0  0
   -1.3409    1.4313    0.8259 H   0  0  0  0  0  0  0  0  0  9  0  0
   -1.2724    0.2767    2.1667 H   0  0  0  0  0  0  0  0  0 10  0  0
    1.3409    1.4312    0.8259 H   0  0  0  0  0  0  0  0  0 11  0  0
    2.1576   -0.1306    0.6865 H   0  0  0  0  0  0  0  0  0 12  0  0
    1.2724    0.2766    2.1667 H   0  0  0  0  0  0  0  0  0 13  0  0
  1  6  1  0
  1  2  1  0
  2  3  1  0
  3  4  1  0
  3  5  1  0
  3  7  1  0
  4  8  1  0
  4  9  1  0
  4 10  1  0
  5 11  1  0
  5 12  1  0
  5 13  1  0
M  RAD  2   1   3   2   3
M  END
>  <rmg_smiles>  (1) 
[CH][C]C(C)C

>  <rmg_adjacency_list>  (1) 
1  C u0 p0 c0 {2,S} {3,S} {4,S} {6,S}
2  C u0 p0 c0 {1,S} {7,S} {8,S} {9,S}
3  C u0 p0 c0 {1,S} {10,S} {11,S} {12,S}
4  C u0 p1 c0 {1,S} {5,S}
5  C u0 p1 c0 {4,S} {13,S}
6  H u0 p0 c0 {1,S}
7  H u0 p0 c0 {2,S}
8  H u0 p0 c0 {2,S}
9  H u0 p0 c0 {2,S}
10 H u0 p0 c0 {3,S}
11 H u0 p0 c0 {3,S}
12 H u0 p0 c0 {3,S}
13 H u0 p0 c0 {5,S}


>  <multiplicity>  (1) 
1

>  <reaction>  (1) 
rxn_1301

>  <type>  (1) 
r1h

>  <role_mapnums>  (1) 
{"r1h_a": 3, "r1h_h": 7}

>  <role_mapidx>  (1) 
{"r1h_a": 2, "r1h_h": 6}

>  <ordered_mapped_smiles>  (1) 
[C:1]([C:2][C:3]([C:4]([H:8])([H:9])[H:10])([C:5]([H:11])([H:12])[H:13])[H:7])[H:6]

>  <mol_properties>  (1) 
{"2": {"label": "donator", "atom_type": "Cs"}, "6": {"label": "d_hydrogen", "atom_type": "H0"}}

>  <level_of_theory>  (1) 
wb97xd/def2tzvp

>  <lot_method>  (1) 
wb97xd

>  <lot_basis>  (1) 
def2tzvp

>  <spin_multiplicity>  (1) 
1.0

>  <optical_isomers>  (1) 
1.0

>  <modes>  (1) 
IdealGasTranslation(mass=(68.0626, 'amu')),         NonlinearRotor(             inertia = ([63.031, 131.338, 177.504

>  <frequency_value>  (1) 
unknown

>  <frequency_units>  (1) 
unknown

>  <frequency_list>  (1) 
unknown

>  <arkane_path>  (1) 
/home/calvin/Dropbox/PersonalFolders/Calvin/HAb_Converged/rxn_1301/output/Species/rxn_1301_CtCC[C]C/arkane/output.py

>  <path_exists>  (1) 
True

>  <E0_value>  (1) 
-512436.2321226376

>  <E0_units>  (1) 
kJ/mol

>  <thermo_class>  (1) 
NASA

>  <Cp0_value>  (1) 
33.257888

>  <Cp0_units>  (1) 
J/(mol*K)

>  <CpInf_value>  (1) 
307.635464

>  <CpInf_units>  (1) 
J/(mol*K)

>  <Tmin_value>  (1) 
10.0

>  <Tmin_units>  (1) 
K

>  <Tmax_value>  (1) 
3000.0

>  <Tmax_units>  (1) 
K

>  <polynomials>  (1) 
[{"name": "polynomial1", "class": "NASAPolynomial", "Tmin_value": 10.0, "Tmin_units": "K", "Tmax_value": 293.0407624013314, "Tmax_units": "K", "coeffs": [3.9101886097059264, 0.0069849319055039685, 0.00016661855350475234, -4.2944025859153837e-07, 3.715868629965923e-10, -61631842.919720486, 9.420104844549218]}, {"name": "polynomial2", "class": "NASAPolynomial", "Tmin_value": 293.0407624013314, "Tmin_units": "K", "Tmax_value": 3000.0, "Tmax_units": "K", "coeffs": [1.1644442010838205, 0.04446438207111068, -2.52295815987051e-05, 7.014702784040353e-09, -7.641632564807846e-13, -61631681.99713866, 19.29648088401905]}]

>  <H298_value>  (1) 
-122470.68169768815

>  <H298_units>  (1) 
kcal/mol

>  <S298_value>  (1) 
75.75418343380927

>  <S298_units>  (1) 
cal/(mol*K)

>  <Cp_T_value_list>  (1) 
[24.673759492733886, 30.48939610587082, 35.607396985307304, 40.0949997668281, 47.42973897696881, 52.95862441339962, 61.40568267180244, 65.70875577504152, 67.91222494070715]

>  <Cp_T_units>  (1) 
cal/(mol*K)

>  <T_list>  (1) 
[300.0, 400.0, 500.0, 600.0, 800.0, 1000.0, 1500.0, 2000.0, 2400.0]

>  <T_units>  (1) 
K

>  <yaml_path>  (1) 
/home/calvin/Dropbox/PersonalFolders/Calvin/HAb_Converged/rxn_1301/output/Species/rxn_1301_CtCC[C]C/rxn_1301_CtCCCC.yml

>  <frequencies_cm1>  (1) 
[181.78970237636, 214.59329125, 227.57876049012, 284.68461041124, 357.7218662747599, 538.28237827884, 546.74250419308, 681.47275617148, 684.6727713305999, 777.09552675248, 934.7477757290399, 938.00959375604, 968.90416071072, 1120.3143200313998, 1127.90233881, 1188.30434168472, 1322.0938166742799, 1344.4252529349199, 1390.50272443212, 1410.02556369688, 1473.5177099656, 1475.7288792386398, 1485.74781082052, 1496.61824858208, 2216.82766894368, 3013.5353057700795, 3017.3808175492795, 3019.5370509397603, 3091.98374606576, 3096.2206760082004, 3103.6370201537993, 3105.55290905808, 3437.4617775149595]

>  <ZPE_kJmol>  (1) 
294.721743692255

>  <E_elec_kJmol>  (1) 
-512730.9538663298

>  <E0_minus_Eelec_plus_ZPE_kJmol>  (1) 
0.0

>  <rxn>  (1) 
rxn_1301

>  <species_type>  (1) 
r1

>  <species_folder>  (1) 
rxn_1301_CtCC[C]C

>  <frequencies_cm1_list>  (1) 
[181.78970237636, 214.59329125, 227.57876049012, 284.68461041124, 357.7218662747599, 538.28237827884, 546.74250419308, 681.47275617148, 684.6727713305999, 777.09552675248, 934.7477757290399, 938.00959375604, 968.90416071072, 1120.3143200313998, 1127.90233881, 1188.30434168472, 1322.0938166742799, 1344.4252529349199, 1390.50272443212, 1410.02556369688, 1473.5177099656, 1475.7288792386398, 1485.74781082052, 1496.61824858208, 2216.82766894368, 3013.5353057700795, 3017.3808175492795, 3019.5370509397603, 3091.98374606576, 3096.2206760082004, 3103.6370201537993, 3105.55290905808, 3437.4617775149595]

>  <E0_kJmol>  (1) 
-512436

>  <H298_kJmol>  (1) 
-512417

$$$$

     RDKit          3D

  2  1  0  0  0  0  0  0  0  0999 V2000
   -0.0000   -0.5131    0.2321 H   0  0  0  0  0  0  0  0  0  1  0  0
    0.0000    0.1611   -0.0729 H   0  0  0  0  0  0  0  0  0  2  0  0
  1  2  1  0
M  END
>  <rmg_smiles>  (2) 
[H][H]

>  <rmg_adjacency_list>  (2) 
1 H u0 p0 c0 {2,S}
2 H u0 p0 c0 {1,S}


>  <multiplicity>  (2) 
1

>  <reaction>  (2) 
rxn_1301

>  <type>  (2) 
r2h

>  <role_mapnums>  (2) 
{"r2h_a": 1, "r2h_h": 2}

>  <role_mapidx>  (2) 
{"r2h_a": 0, "r2h_h": 1}

>  <ordered_mapped_smiles>  (2) 
[H:1][H:2]

>  <mol_properties>  (2) 
{"0": {"label": "acceptor", "atom_type": "H0"}, "1": {"label": "a_hydrogen", "atom_type": "H0"}}

>  <level_of_theory>  (2) 
wb97xd/def2tzvp

>  <lot_method>  (2) 
wb97xd

>  <lot_basis>  (2) 
def2tzvp

>  <spin_multiplicity>  (2) 
1.0

>  <optical_isomers>  (2) 
1.0

>  <modes>  (2) 
IdealGasTranslation(mass=(2.01565, 'amu')),         LinearRotor(inertia=(0.279051, 'amu*angstrom^2'), symmetry=2),         HarmonicOscillator(frequencies=([4384.98

>  <frequency_value>  (2) 
unknown

>  <frequency_units>  (2) 
unknown

>  <frequency_list>  (2) 
unknown

>  <arkane_path>  (2) 
/home/calvin/Dropbox/PersonalFolders/Calvin/HAb_Converged/rxn_1301/output/Species/rxn_1301_[H][H]/arkane/output.py

>  <path_exists>  (2) 
True

>  <E0_value>  (2) 
-3062.16965545063

>  <E0_units>  (2) 
kJ/mol

>  <thermo_class>  (2) 
NASA

>  <Cp0_value>  (2) 
29.100652

>  <Cp0_units>  (2) 
J/(mol*K)

>  <CpInf_value>  (2) 
37.415124

>  <CpInf_units>  (2) 
J/(mol*K)

>  <Tmin_value>  (2) 
10.0

>  <Tmin_units>  (2) 
K

>  <Tmax_value>  (2) 
3000.0

>  <Tmax_units>  (2) 
K

>  <polynomials>  (2) 
[{"name": "polynomial1", "class": "NASAPolynomial", "Tmin_value": 10.0, "Tmin_units": "K", "Tmax_value": 609.8839760798177, "Tmax_units": "K", "coeffs": [3.498630427760662, 8.118128927195725e-05, -2.559636751505851e-07, 1.12469612407288e-11, 3.0815171130046294e-13, -368293.8823611774, -4.277290681887199]}, {"name": "polynomial2", "class": "NASAPolynomial", "Tmin_value": 609.8839760798177, "Tmin_units": "K", "Tmax_value": 3000.0, "Tmax_units": "K", "coeffs": [3.686867766797846, -0.0007828622299568348, 9.578139376048542e-07, -3.193665739780837e-10, 3.533006631714403e-14, -368323.7341208647, -5.148841965058497]}]

>  <H298_value>  (2) 
-729.8011438890577

>  <H298_units>  (2) 
kcal/mol

>  <S298_value>  (2) 
31.136082854374543

>  <S298_units>  (2) 
cal/(mol*K)

>  <Cp_T_value_list>  (2) 
[6.960683160805141, 6.952753142081975, 6.947066275630451, 6.950370161364484, 7.003977696739648, 7.10979357060473, 7.489089863592967, 7.874797646413975, 8.112273708870758]

>  <Cp_T_units>  (2) 
cal/(mol*K)

>  <T_list>  (2) 
[300.0, 400.0, 500.0, 600.0, 800.0, 1000.0, 1500.0, 2000.0, 2400.0]

>  <T_units>  (2) 
K

>  <yaml_path>  (2) 
/home/calvin/Dropbox/PersonalFolders/Calvin/HAb_Converged/rxn_1301/output/Species/rxn_1301_[H][H]/rxn_1301_HH.yml

>  <frequencies_cm1>  (2) 
[4384.97527895388]

>  <ZPE_kJmol>  (2) 
26.22798418526521

>  <E_elec_kJmol>  (2) 
-3088.3976396358958

>  <E0_minus_Eelec_plus_ZPE_kJmol>  (2) 
0.0

>  <rxn>  (2) 
rxn_1301

>  <species_type>  (2) 
p0

>  <species_folder>  (2) 
rxn_1301_[H][H]

>  <frequencies_cm1_list>  (2) 
[4384.97527895388]

>  <E0_kJmol>  (2) 
-3062.17

>  <H298_kJmol>  (2) 
-3053.49

$$$$

     RDKit          3D

 14 12  0  0  0  0  0  0  0  0999 V2000
   -0.0000   -2.3553    1.3008 H   0  0  0  0  0 15  0  0  0  1  0  0
   -0.0000   -0.2984   -2.1732 C   0  0  0  0  0  0  0  0  0  2  0  0
   -0.0000   -0.2393   -0.9752 C   0  0  0  0  0  0  0  0  0  3  0  0
   -0.0000   -0.1842    0.4702 C   0  0  0  0  0  0  0  0  0  4  0  0
   -1.2738    0.4164    1.0473 C   0  0  0  0  0  0  0  0  0  5  0  0
    1.2738    0.4164    1.0473 C   0  0  0  0  0  0  0  0  0  6  0  0
   -0.0000   -0.3480   -3.2355 H   0  0  0  0  0  0  0  0  0  7  0  0
   -0.0000   -1.3291    0.8367 H   0  0  0  0  0  0  0  0  0  8  0  0
   -2.1576   -0.0850    0.6542 H   0  0  0  0  0  0  0  0  0  9  0  0
   -1.3409    1.4767    0.7935 H   0  0  0  0  0  0  0  0  0 10  0  0
   -1.2724    0.3222    2.1344 H   0  0  0  0  0  0  0  0  0 11  0  0
    1.3409    1.4767    0.7935 H   0  0  0  0  0  0  0  0  0 12  0  0
    2.1576   -0.0851    0.6542 H   0  0  0  0  0  0  0  0  0 13  0  0
    1.2724    0.3221    2.1344 H   0  0  0  0  0  0  0  0  0 14  0  0
  2  7  1  0
  2  3  1  0
  3  4  1  0
  4  5  1  0
  4  8  1  0
  4  6  1  0
  5 11  1  0
  5  9  1  0
  5 10  1  0
  6 14  1  0
  6 13  1  0
  6 12  1  0
M  END
>  <rmg_smiles>  (3) 
[CH]CC(C)C.[H]

>  <rmg_adjacency_list>  (3) 
multiplicity 2
1  C u0 p0 c0 {2,S} {3,S} {4,S} {6,S}
2  C u0 p0 c0 {1,S} {7,S} {8,S} {9,S}
3  C u0 p0 c0 {1,S} {10,S} {11,S} {12,S}
4  C u0 p1 c0 {1,S} {5,S}
5  C u0 p1 c0 {4,S} {13,S}
6  H u0 p0 c0 {1,S}
7  H u0 p0 c0 {2,S}
8  H u0 p0 c0 {2,S}
9  H u0 p0 c0 {2,S}
10 H u0 p0 c0 {3,S}
11 H u0 p0 c0 {3,S}
12 H u0 p0 c0 {3,S}
13 H u0 p0 c0 {5,S}
14 H u1 p0 c0


>  <multiplicity>  (3) 
2

>  <reaction>  (3) 
rxn_1301

>  <type>  (3) 
ts

>  <role_mapnums>  (3) 
{"*2": 8, "*1": 4, "*3": 1, "*0": null, "*4": 3}

>  <role_mapidx>  (3) 
{"*2": 7, "*1": 3, "*3": 0, "*4": 2}

>  <ordered_mapped_smiles>  (3) 
[H:1].[CH2:2]([CH2:3][C:4]([C:5]([H:9])([H:10])[H:11])([C:6]([H:12])([H:13])[H:14])[H:8])[H:7]

>  <mol_properties>  (3) 
{"0": {"label": "*3", "atom_type": "H0"}, "2": {"label": "*4", "atom_type": "C2s"}, "3": {"label": "*1", "atom_type": "Cs"}, "7": {"label": "*2", "atom_type": "H0"}}

>  <level_of_theory>  (3) 
wb97xd/def2tzvp

>  <lot_method>  (3) 
wb97xd

>  <lot_basis>  (3) 
def2tzvp

>  <spin_multiplicity>  (3) 
2.0

>  <optical_isomers>  (3) 
1.0

>  <modes>  (3) 
IdealGasTranslation(mass=(69.0704, 'amu')),         NonlinearRotor(             inertia = ([69.6767, 139.756, 180.501

>  <frequency_value>  (3) 
-1060.79

>  <frequency_units>  (3) 
cm^-1

>  <frequency_list>  (3) 
unknown

>  <arkane_path>  (3) 
/home/calvin/Dropbox/PersonalFolders/Calvin/HAb_Converged/rxn_1301/output/rxns/TS0/arkane/output.py

>  <path_exists>  (3) 
True

>  <E0_value>  (3) 
-513737.0

>  <E0_units>  (3) 
kJ/mol

>  <thermo_class>  (3) 
unknown

>  <Cp0_value>  (3) 
unknown

>  <Cp0_units>  (3) 
unknown

>  <CpInf_value>  (3) 
unknown

>  <CpInf_units>  (3) 
unknown

>  <Tmin_value>  (3) 
unknown

>  <Tmin_units>  (3) 
unknown

>  <Tmax_value>  (3) 
unknown

>  <Tmax_units>  (3) 
unknown

>  <polynomials>  (3) 
unknown

>  <H298_value>  (3) 
unknown

>  <H298_units>  (3) 
unknown

>  <S298_value>  (3) 
unknown

>  <S298_units>  (3) 
unknown

>  <Cp_T_value_list>  (3) 
unknown

>  <Cp_T_units>  (3) 
unknown

>  <T_list>  (3) 
unknown

>  <T_units>  (3) 
unknown

>  <yaml_path>  (3) 
unknown

>  <frequencies_cm1>  (3) 
unknown

>  <ZPE_kJmol>  (3) 
unknown

>  <E_elec_kJmol>  (3) 
unknown

>  <E0_minus_Eelec_plus_ZPE_kJmol>  (3) 
unknown

>  <rxn>  (3) 
unknown

>  <species_type>  (3) 
unknown

>  <species_folder>  (3) 
unknown

>  <frequencies_cm1_list>  (3) 
[]

>  <ts_imag_freq_cm1>  (3) 
-1073.6776

>  <ts_freq_out_path>  (3) 
/home/calvin/Dropbox/PersonalFolders/Calvin/HAb_Converged/rxn_1301/output/rxns/TS0/geometry/freq.out

>  <E0_kJmol>  (3) 
-513737

>  <H298_kJmol>  (3) 
unknown

$$$$

     RDKit          3D

 12 11  0  0  0  0  0  0  0  0999 V2000
    2.5164   -0.5559   -0.0242 C   0  0  0  0  0  0  0  0  0  1  0  0
    1.3287   -0.2938   -0.0132 C   0  0  0  0  0  0  0  0  0  2  0  0
   -0.0146    0.0027   -0.0006 C   0  0  0  0  0  3  0  0  0  3  0  0
   -1.0396   -1.0729   -0.1642 C   0  0  0  0  0  0  0  0  0  4  0  0
   -0.4887    1.4091    0.1769 C   0  0  0  0  0  0  0  0  0  5  0  0
    3.5543   -0.7850   -0.0339 H   0  0  0  0  0  0  0  0  0  6  0  0
   -1.7064   -1.1056    0.7044 H   0  0  0  0  0  0  0  0  0  7  0  0
   -0.5831   -2.0533   -0.2854 H   0  0  0  0  0  0  0  0  0  8  0  0
   -1.6716   -0.8741   -1.0367 H   0  0  0  0  0  0  0  0  0  9  0  0
   -1.0951    1.7228   -0.6798 H   0  0  0  0  0  0  0  0  0 10  0  0
    0.3401    2.1059    0.2861 H   0  0  0  0  0  0  0  0  0 11  0  0
   -1.1300    1.4913    1.0613 H   0  0  0  0  0  0  0  0  0 12  0  0
  1  6  1  0
  1  2  1  0
  2  3  1  0
  3  4  1  0
  3  5  1  0
  4  8  1  0
  4  9  1  0
  4  7  1  0
  5 11  1  0
  5 12  1  0
  5 10  1  0
M  RAD  1   3   2
M  END
>  <rmg_smiles>  (4) 
[CH]C[C](C)C

>  <rmg_adjacency_list>  (4) 
multiplicity 2
1  C u0 p0 c0 {3,S} {6,S} {7,S} {8,S}
2  C u0 p0 c0 {3,S} {9,S} {10,S} {11,S}
3  C u1 p0 c0 {1,S} {2,S} {4,S}
4  C u0 p1 c0 {3,S} {5,S}
5  C u0 p1 c0 {4,S} {12,S}
6  H u0 p0 c0 {1,S}
7  H u0 p0 c0 {1,S}
8  H u0 p0 c0 {1,S}
9  H u0 p0 c0 {2,S}
10 H u0 p0 c0 {2,S}
11 H u0 p0 c0 {2,S}
12 H u0 p0 c0 {5,S}


>  <multiplicity>  (4) 
2

>  <reaction>  (4) 
rxn_1301

>  <type>  (4) 
r1

>  <role_mapnums>  (4) 
{}

>  <role_mapidx>  (4) 
{}

>  <ordered_mapped_smiles>  (4) 
[CH2:1]([CH2:2][C:3]([C:4]([H:7])([H:8])[H:9])[C:5]([H:10])([H:11])[H:12])[H:6]

>  <level_of_theory>  (4) 
wb97xd/def2tzvp

>  <lot_method>  (4) 
wb97xd

>  <lot_basis>  (4) 
def2tzvp

>  <spin_multiplicity>  (4) 
2.0

>  <optical_isomers>  (4) 
1.0

>  <modes>  (4) 
IdealGasTranslation(mass=(67.0548, 'amu')),         NonlinearRotor(             inertia = ([59.1627, 131.378, 184.32

>  <frequency_value>  (4) 
unknown

>  <frequency_units>  (4) 
unknown

>  <frequency_list>  (4) 
unknown

>  <arkane_path>  (4) 
/home/calvin/Dropbox/PersonalFolders/Calvin/HAb_Converged/rxn_1301/output/Species/rxn_1301_CtC[C][C]C/arkane/output.py

>  <path_exists>  (4) 
True

>  <E0_value>  (4) 
-510778.06103061617

>  <E0_units>  (4) 
kJ/mol

>  <thermo_class>  (4) 
NASA

>  <Cp0_value>  (4) 
33.257888

>  <Cp0_units>  (4) 
J/(mol*K)

>  <CpInf_value>  (4) 
282.692048

>  <CpInf_units>  (4) 
J/(mol*K)

>  <Tmin_value>  (4) 
10.0

>  <Tmin_units>  (4) 
K

>  <Tmax_value>  (4) 
3000.0

>  <Tmax_units>  (4) 
K

>  <polynomials>  (4) 
[{"name": "polynomial1", "class": "NASAPolynomial", "Tmin_value": 10.0, "Tmin_units": "K", "Tmax_value": 1039.297839376542, "Tmax_units": "K", "coeffs": [3.598818116233137, 0.033392740321885155, -9.378432171899418e-06, -5.856696266128411e-09, 3.271376899501553e-12, -61432406.274320535, 9.976237246510115]}, {"name": "polynomial2", "class": "NASAPolynomial", "Tmin_value": 1039.297839376542, "Tmin_units": "K", "Tmax_value": 3000.0, "Tmax_units": "K", "coeffs": [5.079452673281011, 0.033284570157804484, -1.7290873427004894e-05, 4.394457265686428e-09, -4.3949451822427094e-13, -61433015.96049292, 1.3234305447781438]}]

>  <H298_value>  (4) 
-122073.9837922916

>  <H298_units>  (4) 
kcal/mol

>  <S298_value>  (4) 
79.4255488393029

>  <S298_units>  (4) 
cal/(mol*K)

>  <Cp_T_value_list>  (4) 
[25.1201753773187, 30.13456332004963, 34.623007965675164, 38.58588826040132, 45.014482399280844, 49.735420575541255, 57.04911167988228, 60.826095998833885, 62.665750252433256]

>  <Cp_T_units>  (4) 
cal/(mol*K)

>  <T_list>  (4) 
[300.0, 400.0, 500.0, 600.0, 800.0, 1000.0, 1500.0, 2000.0, 2400.0]

>  <T_units>  (4) 
K

>  <yaml_path>  (4) 
/home/calvin/Dropbox/PersonalFolders/Calvin/HAb_Converged/rxn_1301/output/Species/rxn_1301_CtC[C][C]C/rxn_1301_CtCCCC.yml

>  <frequencies_cm1>  (4) 
[99.21420390335999, 101.22623060211998, 185.93736150964, 255.63726250763995, 344.22137313563996, 457.05280892856, 461.24166997375994, 585.753847796, 665.5688181703599, 727.2892822265198, 951.3864811594, 965.6148747424401, 1006.9197914422399, 1043.12253804928, 1243.10975152364, 1333.7402237769998, 1389.39027281028, 1401.68217653308, 1454.72277114476, 1460.9648608006398, 1470.11168524688, 1490.7813110600798, 2012.45245184984, 2983.54718087764, 2987.02874243488, 3032.15856995792, 3032.5293871651998, 3111.8568015818396, 3113.09285893944, 3430.21024101704]

>  <ZPE_kJmol>  (4) 
255.9863644311404

>  <E_elec_kJmol>  (4) 
-511034.0473950473

>  <E0_minus_Eelec_plus_ZPE_kJmol>  (4) 
0.0

>  <rxn>  (4) 
rxn_1301

>  <species_type>  (4) 
p1

>  <species_folder>  (4) 
rxn_1301_CtC[C][C]C

>  <frequencies_cm1_list>  (4) 
[99.21420390335999, 101.22623060211998, 185.93736150964, 255.63726250763995, 344.22137313563996, 457.05280892856, 461.24166997375994, 585.753847796, 665.5688181703599, 727.2892822265198, 951.3864811594, 965.6148747424401, 1006.9197914422399, 1043.12253804928, 1243.10975152364, 1333.7402237769998, 1389.39027281028, 1401.68217653308, 1454.72277114476, 1460.9648608006398, 1470.11168524688, 1490.7813110600798, 2012.45245184984, 2983.54718087764, 2987.02874243488, 3032.15856995792, 3032.5293871651998, 3111.8568015818396, 3113.09285893944, 3430.21024101704]

>  <E0_kJmol>  (4) 
-510778

>  <H298_kJmol>  (4) 
-510758

$$$$

     RDKit          3D

  1  0  0  0  0  0  0  0  0  0999 V2000
    0.0000    0.0000    0.0000 H   0  0  0  0  0 15  0  0  0  1  0  0
M  END
>  <rmg_smiles>  (5) 
[H]

>  <rmg_adjacency_list>  (5) 
multiplicity 2
1 H u1 p0 c0


>  <multiplicity>  (5) 
2

>  <reaction>  (5) 
rxn_1301

>  <type>  (5) 
r2

>  <role_mapnums>  (5) 
{}

>  <role_mapidx>  (5) 
{}

>  <ordered_mapped_smiles>  (5) 
[H:1]

>  <level_of_theory>  (5) 
wb97xd/def2tzvp

>  <lot_method>  (5) 
wb97xd

>  <lot_basis>  (5) 
def2tzvp

>  <spin_multiplicity>  (5) 
2.0

>  <optical_isomers>  (5) 
1.0

>  <modes>  (5) 
IdealGasTranslation(mass=(1.00797, 'amu')),

>  <frequency_value>  (5) 
unknown

>  <frequency_units>  (5) 
unknown

>  <frequency_list>  (5) 
unknown

>  <arkane_path>  (5) 
/home/calvin/Dropbox/PersonalFolders/Calvin/HAb_Converged/rxn_1301/output/Species/rxn_1301_[H]/arkane/output.py

>  <path_exists>  (5) 
True

>  <E0_value>  (5) 
-1319.7535890175566

>  <E0_units>  (5) 
kJ/mol

>  <thermo_class>  (5) 
NASA

>  <Cp0_value>  (5) 
20.78618

>  <Cp0_units>  (5) 
J/(mol*K)

>  <CpInf_value>  (5) 
20.78618

>  <CpInf_units>  (5) 
J/(mol*K)

>  <Tmin_value>  (5) 
10.0

>  <Tmin_units>  (5) 
K

>  <Tmax_value>  (5) 
3000.0

>  <Tmax_units>  (5) 
K

>  <polynomials>  (5) 
[{"name": "polynomial1", "class": "NASAPolynomial", "Tmin_value": 10.0, "Tmin_units": "K", "Tmax_value": 1853.5663026740365, "Tmax_units": "K", "coeffs": [2.500000000000126, -2.814048095438137e-15, 9.047587538332909e-18, -8.591944598242694e-21, 2.4182720553650057e-24, -158729.69562032758, -0.461069367474324]}, {"name": "polynomial2", "class": "NASAPolynomial", "Tmin_value": 1853.5663026740365, "Tmin_units": "K", "Tmax_value": 3000.0, "Tmax_units": "K", "coeffs": [2.500000000696122, -1.3129776766613561e-12, 9.140875080033424e-16, -2.782806647322001e-19, 3.1263265306749967e-23, -158729.69562061856, -0.4610693713504795]}]

>  <H298_value>  (5) 
-313.9482141882736

>  <H298_units>  (5) 
kcal/mol

>  <S298_value>  (5) 
27.387012987908147

>  <S298_units>  (5) 
cal/(mol*K)

>  <Cp_T_value_list>  (5) 
[4.968016252389826, 4.968016252389978, 4.968016252390173, 4.96801625239036, 4.968016252390567, 4.968016252390427, 4.968016252389077, 4.968016252391019, 4.968016252390868]

>  <Cp_T_units>  (5) 
cal/(mol*K)

>  <T_list>  (5) 
[300.0, 400.0, 500.0, 600.0, 800.0, 1000.0, 1500.0, 2000.0, 2400.0]

>  <T_units>  (5) 
K

>  <yaml_path>  (5) 
/home/calvin/Dropbox/PersonalFolders/Calvin/HAb_Converged/rxn_1301/output/Species/rxn_1301_[H]/rxn_1301_H.yml

>  <frequencies_cm1>  (5) 
[]

>  <ZPE_kJmol>  (5) 
unknown

>  <E_elec_kJmol>  (5) 
unknown

>  <E0_minus_Eelec_plus_ZPE_kJmol>  (5) 
unknown

>  <rxn>  (5) 
rxn_1301

>  <species_type>  (5) 
r0

>  <species_folder>  (5) 
rxn_1301_[H]

>  <frequencies_cm1_list>  (5) 
[]

>  <E0_kJmol>  (5) 
-1319.75

>  <H298_kJmol>  (5) 
-1313.56

$$$$
