
     RDKit          3D

 10  9  0  0  0  0  0  0  0  0999 V2000
   -0.3935   -0.7351   -1.7187 C   0  0  0  0  0  2  0  0  0  1  0  0
   -0.2789   -0.4484   -0.5559 C   0  0  0  0  0  2  0  0  0  2  0  0
   -0.0736   -0.1509    0.8226 C   0  0  0  0  0  0  0  0  0  3  0  0
    0.6041    1.1612    1.1475 C   0  0  0  0  0  0  0  0  0  4  0  0
   -0.5166   -0.9725   -2.7478 H   0  0  0  0  0  0  0  0  0  5  0  0
    0.6439   -0.8986    1.1582 H   0  0  0  0  0  0  0  0  0  6  0  0
   -0.9401   -0.3775    1.4425 H   0  0  0  0  0  0  0  0  0  7  0  0
   -0.0312    2.0092    0.8799 H   0  0  0  0  0  0  0  0  0  8  0  0
    0.8235    1.2215    2.2143 H   0  0  0  0  0  0  0  0  0  9  0  0
    1.5431    1.2549    0.6005 H   0  0  0  0  0  0  0  0  0 10  0  0
  1  5  1  0
  1  2  1  0
  2  3  1  0
  3  4  1  0
  3  6  1  0
  3  7  1  0
  4  8  1  0
  4  9  1  0
  4 10  1  0
M  RAD  2   1   3   2   3
M  END
>  <rmg_smiles>  (1) 
[CH][C]CC

>  <rmg_adjacency_list>  (1) 
1  C u0 p0 c0 {2,S} {3,S} {5,S} {6,S}
2  C u0 p0 c0 {1,S} {7,S} {8,S} {9,S}
3  C u0 p1 c0 {1,S} {4,S}
4  C u0 p1 c0 {3,S} {10,S}
5  H u0 p0 c0 {1,S}
6  H u0 p0 c0 {1,S}
7  H u0 p0 c0 {2,S}
8  H u0 p0 c0 {2,S}
9  H u0 p0 c0 {2,S}
10 H u0 p0 c0 {4,S}


>  <multiplicity>  (1) 
1

>  <reaction>  (1) 
rxn_1271

>  <type>  (1) 
r1h

>  <role_mapnums>  (1) 
{"r1h_a": 3, "r1h_h": 6}

>  <role_mapidx>  (1) 
{"r1h_a": 2, "r1h_h": 5}

>  <ordered_mapped_smiles>  (1) 
[C:1]([C:2][C:3]([C:4]([H:8])([H:9])[H:10])([H:6])[H:7])[H:5]

>  <mol_properties>  (1) 
{"2": {"label": "donator", "atom_type": "Cs"}, "5": {"label": "d_hydrogen", "atom_type": "H0"}}

>  <level_of_theory>  (1) 
wb97xd/def2tzvp

>  <lot_method>  (1) 
wb97xd

>  <lot_basis>  (1) 
def2tzvp

>  <spin_multiplicity>  (1) 
1.0

>  <optical_isomers>  (1) 
1.0

>  <modes>  (1) 
IdealGasTranslation(mass=(54.047, 'amu')),         NonlinearRotor(             inertia = ([18.311, 110.882, 122.965

>  <frequency_value>  (1) 
unknown

>  <frequency_units>  (1) 
unknown

>  <frequency_list>  (1) 
unknown

>  <arkane_path>  (1) 
/home/calvin/Dropbox/PersonalFolders/Calvin/HAb_Converged/rxn_1271/output/Species/rxn_1271_CtCCC/arkane/output.py

>  <path_exists>  (1) 
True

>  <E0_value>  (1) 
-409281.9068125439

>  <E0_units>  (1) 
kJ/mol

>  <thermo_class>  (1) 
NASA

>  <Cp0_value>  (1) 
33.257888

>  <Cp0_units>  (1) 
J/(mol*K)

>  <CpInf_value>  (1) 
232.805216

>  <CpInf_units>  (1) 
J/(mol*K)

>  <Tmin_value>  (1) 
10.0

>  <Tmin_units>  (1) 
K

>  <Tmax_value>  (1) 
3000.0

>  <Tmax_units>  (1) 
K

>  <polynomials>  (1) 
[{"name": "polynomial1", "class": "NASAPolynomial", "Tmin_value": 10.0, "Tmin_units": "K", "Tmax_value": 360.48121370424, "Tmax_units": "K", "coeffs": [3.964907651517416, 0.0024252181225602747, 0.00010970866124517926, -2.330425775882924e-07, 1.6483387684637681e-10, -49225243.05086936, 8.23900007534587]}, {"name": "polynomial2", "class": "NASAPolynomial", "Tmin_value": 360.48121370424, "Tmin_units": "K", "Tmax_value": 3000.0, "Tmax_units": "K", "coeffs": [1.173366775306642, 0.03340704549885685, -1.9235392341731885e-05, 5.470981511725664e-09, -6.120493514194064e-13, -49225041.83097189, 18.857768088551204]}]

>  <H298_value>  (1) 
-97816.99696801163

>  <H298_units>  (1) 
kcal/mol

>  <S298_value>  (1) 
68.93760489416931

>  <S298_units>  (1) 
cal/(mol*K)

>  <Cp_T_value_list>  (1) 
[19.095578790385176, 23.435119416919605, 27.251876378154844, 30.59356719880144, 36.04553968052718, 40.149424943692715, 46.44174128793762, 49.72179624324852, 51.42678973904542]

>  <Cp_T_units>  (1) 
cal/(mol*K)

>  <T_list>  (1) 
[300.0, 400.0, 500.0, 600.0, 800.0, 1000.0, 1500.0, 2000.0, 2400.0]

>  <T_units>  (1) 
K

>  <yaml_path>  (1) 
/home/calvin/Dropbox/PersonalFolders/Calvin/HAb_Converged/rxn_1271/output/Species/rxn_1271_CtCCC/rxn_1271_CtCCC.yml

>  <frequencies_cm1>  (1) 
[204.17607451956, 218.97442788415998, 366.0789874092, 525.48918462768, 681.08133800824, 687.0144133247201, 787.3273348792799, 847.3241856201199, 1026.4769656336, 1086.98884027344, 1103.26359548184, 1280.9125057102399, 1344.0544357276399, 1402.80149514024, 1466.62325670432, 1482.32805213116, 1490.70577422156, 2222.88434999592, 3023.4855674987602, 3025.88901236076, 3057.6625534364, 3103.54088235932, 3108.5949835548395, 3438.35448560656]

>  <ZPE_kJmol>  (1) 
221.20174166210896

>  <E_elec_kJmol>  (1) 
-409503.108554206

>  <E0_minus_Eelec_plus_ZPE_kJmol>  (1) 
0.0

>  <rxn>  (1) 
rxn_1271

>  <species_type>  (1) 
r0

>  <species_folder>  (1) 
rxn_1271_CtCCC

>  <frequencies_cm1_list>  (1) 
[204.17607451956, 218.97442788415998, 366.0789874092, 525.48918462768, 681.08133800824, 687.0144133247201, 787.3273348792799, 847.3241856201199, 1026.4769656336, 1086.98884027344, 1103.26359548184, 1280.9125057102399, 1344.0544357276399, 1402.80149514024, 1466.62325670432, 1482.32805213116, 1490.70577422156, 2222.88434999592, 3023.4855674987602, 3025.88901236076, 3057.6625534364, 3103.54088235932, 3108.5949835548395, 3438.35448560656]

>  <E0_kJmol>  (1) 
-409282

>  <H298_kJmol>  (1) 
-409266

$$$$

     RDKit          3D

 15 15  0  0  0  0  0  0  0  0999 V2000
   -2.7788   -0.5740    0.3683 H   0  0  0  0  0  0  0  0  0  1  0  0
   -1.9661   -1.2522    0.6151 C   0  0  0  0  0  0  0  0  0  2  0  0
   -0.7489   -0.5332    0.2549 C   0  0  0  0  0  0  0  0  0  3  0  0
   -0.0076    0.1647    1.2143 C   0  0  0  0  0  0  0  0  0  4  0  0
    1.1002    0.9107    0.8535 C   0  0  0  0  0  0  0  0  0  5  0  0
    1.4909    0.9833   -0.4768 C   0  0  0  0  0  0  0  0  0  6  0  0
    0.7643    0.2986   -1.4416 C   0  0  0  0  0  0  0  0  0  7  0  0
   -0.3418   -0.4502   -1.0815 C   0  0  0  0  0  0  0  0  0  8  0  0
   -2.1072   -1.4574    1.6730 H   0  0  0  0  0  0  0  0  0  9  0  0
   -2.2368   -2.0862   -0.0274 H   0  0  0  0  0  0  0  0  0 10  0  0
   -0.3096    0.1161    2.2543 H   0  0  0  0  0  0  0  0  0 11  0  0
    1.6629    1.4395    1.6128 H   0  0  0  0  0  0  0  0  0 12  0  0
    2.3567    1.5683   -0.7594 H   0  0  0  0  0  0  0  0  0 13  0  0
    1.0618    0.3508   -2.4815 H   0  0  0  0  0  0  0  0  0 14  0  0
   -0.9139   -0.9720   -1.8397 H   0  0  0  0  0  0  0  0  0 15  0  0
  1  2  1  0
  2 10  1  0
  2  9  1  0
  2  3  1  0
  3  4  1  0
  3  8  1  0
  4  5  1  0
  4 11  1  0
  5 12  1  0
  5  6  1  0
  6 13  1  0
  6  7  1  0
  7 14  1  0
  7  8  1  0
  8 15  1  0
M  END
>  <rmg_smiles>  (2) 
CC1[CH][CH][CH][CH][CH]1

>  <rmg_adjacency_list>  (2) 
1  C u0 p0 c0 {2,S} {8,S} {9,S} {10,S}
2  C u0 p0 c0 {1,S} {3,S} {4,S}
3  C u0 p0 c0 {2,S} {5,S} {11,S}
4  C u0 p0 c0 {2,S} {7,S} {15,S}
5  C u0 p0 c0 {3,S} {6,S} {12,S}
6  C u0 p0 c0 {5,S} {7,S} {13,S}
7  C u0 p0 c0 {4,S} {6,S} {14,S}
8  H u0 p0 c0 {1,S}
9  H u0 p0 c0 {1,S}
10 H u0 p0 c0 {1,S}
11 H u0 p0 c0 {3,S}
12 H u0 p0 c0 {5,S}
13 H u0 p0 c0 {6,S}
14 H u0 p0 c0 {7,S}
15 H u0 p0 c0 {4,S}


>  <multiplicity>  (2) 
1

>  <reaction>  (2) 
rxn_1271

>  <type>  (2) 
r2h

>  <role_mapnums>  (2) 
{"r2h_a": 2, "r2h_h": 1}

>  <role_mapidx>  (2) 
{"r2h_a": 1, "r2h_h": 0}

>  <ordered_mapped_smiles>  (2) 
[H:1][C:2]([CH:3]1[CH:4]([H:11])[CH:5]([H:12])[CH:6]([H:13])[CH:7]([H:14])[CH:8]1[H:15])([H:9])[H:10]

>  <mol_properties>  (2) 
{"0": {"label": "a_hydrogen", "atom_type": "H0"}, "1": {"label": "acceptor", "atom_type": "Cs"}}

>  <level_of_theory>  (2) 
wb97xd/def2tzvp

>  <lot_method>  (2) 
wb97xd

>  <lot_basis>  (2) 
def2tzvp

>  <spin_multiplicity>  (2) 
1.0

>  <optical_isomers>  (2) 
1.0

>  <modes>  (2) 
IdealGasTranslation(mass=(92.0626, 'amu')),         NonlinearRotor(             inertia = ([90.1823, 198.896, 285.945

>  <frequency_value>  (2) 
unknown

>  <frequency_units>  (2) 
unknown

>  <frequency_list>  (2) 
unknown

>  <arkane_path>  (2) 
/home/calvin/Dropbox/PersonalFolders/Calvin/HAb_Converged/rxn_1271/output/Species/rxn_1271_Cc1ccccc1/arkane/output.py

>  <path_exists>  (2) 
True

>  <E0_value>  (2) 
-712667.4186954657

>  <E0_units>  (2) 
kJ/mol

>  <thermo_class>  (2) 
NASA

>  <Cp0_value>  (2) 
33.257888

>  <Cp0_units>  (2) 
J/(mol*K)

>  <CpInf_value>  (2) 
357.522296

>  <CpInf_units>  (2) 
J/(mol*K)

>  <Tmin_value>  (2) 
10.0

>  <Tmin_units>  (2) 
K

>  <Tmax_value>  (2) 
3000.0

>  <Tmax_units>  (2) 
K

>  <polynomials>  (2) 
[{"name": "polynomial1", "class": "NASAPolynomial", "Tmin_value": 10.0, "Tmin_units": "K", "Tmax_value": 551.6404107050422, "Tmax_units": "K", "coeffs": [3.9807877443631, 0.00035561988080208296, 0.00017407945539970812, -2.980514466570864e-07, 1.625970399361135e-10, -85714089.32981402, 11.957872909957874]}, {"name": "polynomial2", "class": "NASAPolynomial", "Tmin_value": 551.6404107050422, "Tmin_units": "K", "Tmax_value": 3000.0, "Tmax_units": "K", "coeffs": [-2.4640727136101863, 0.06292197006651765, -3.910390273638268e-05, 1.1617229825521433e-08, -1.3239176957032157e-12, -85713619.20098881, 37.03314537917204]}]

>  <H298_value>  (2) 
-170327.1711088113

>  <H298_units>  (2) 
kcal/mol

>  <S298_value>  (2) 
79.81344471114225

>  <S298_units>  (2) 
cal/(mol*K)

>  <Cp_T_value_list>  (2) 
[25.881917309628086, 33.90758568479932, 40.90534559010948, 46.79761268221675, 56.14404960423432, 62.889733704082204, 72.41563025517803, 76.9434671339039, 79.45318395865998]

>  <Cp_T_units>  (2) 
cal/(mol*K)

>  <T_list>  (2) 
[300.0, 400.0, 500.0, 600.0, 800.0, 1000.0, 1500.0, 2000.0, 2400.0]

>  <T_units>  (2) 
K

>  <yaml_path>  (2) 
/home/calvin/Dropbox/PersonalFolders/Calvin/HAb_Converged/rxn_1271/output/Species/rxn_1271_Cc1ccccc1/rxn_1271_Cc1ccccc1.yml

>  <frequencies_cm1>  (2) 
[32.67311615255999, 208.88682644908, 346.6454189536, 414.1066827372799, 475.62800421915995, 527.95443235756, 633.69913930024, 711.73556047672, 745.6928028841199, 800.1617304423601, 861.8684605278798, 915.5202168330399, 979.4449831769199, 991.60641417864, 997.6768292015198, 1015.82627140228, 1052.7363174972797, 1058.5389200926797, 1109.8078324918, 1173.8974064833599, 1201.1112693065197, 1232.0058362611999, 1316.04400260736, 1349.7815014845198, 1404.03755249784, 1462.1391152903598, 1476.8481978457999, 1495.6225357106798, 1530.4999541509599, 1640.12450779944, 1663.1975784746398, 3015.0391755551595, 3079.01201079628, 3101.631860440359, 3145.0655425893597, 3146.5282104625194, 3159.5205466879593, 3168.9008486350795, 3181.02107772488]

>  <ZPE_kJmol>  (2) 
333.8912309447283

>  <E_elec_kJmol>  (2) 
-713001.3099264104

>  <E0_minus_Eelec_plus_ZPE_kJmol>  (2) 
0.0

>  <rxn>  (2) 
rxn_1271

>  <species_type>  (2) 
p0

>  <species_folder>  (2) 
rxn_1271_Cc1ccccc1

>  <frequencies_cm1_list>  (2) 
[32.67311615255999, 208.88682644908, 346.6454189536, 414.1066827372799, 475.62800421915995, 527.95443235756, 633.69913930024, 711.73556047672, 745.6928028841199, 800.1617304423601, 861.8684605278798, 915.5202168330399, 979.4449831769199, 991.60641417864, 997.6768292015198, 1015.82627140228, 1052.7363174972797, 1058.5389200926797, 1109.8078324918, 1173.8974064833599, 1201.1112693065197, 1232.0058362611999, 1316.04400260736, 1349.7815014845198, 1404.03755249784, 1462.1391152903598, 1476.8481978457999, 1495.6225357106798, 1530.4999541509599, 1640.12450779944, 1663.1975784746398, 3015.0391755551595, 3079.01201079628, 3101.631860440359, 3145.0655425893597, 3146.5282104625194, 3159.5205466879593, 3168.9008486350795, 3181.02107772488]

>  <E0_kJmol>  (2) 
-712667

>  <H298_kJmol>  (2) 
-712649

$$$$

     RDKit          3D

 24 23  0  0  0  0  0  0  0  0999 V2000
   -2.8592   -0.3162   -2.2544 C   0  0  0  0  0  0  0  0  0  1  0  0
   -2.7446   -0.0294   -1.0916 C   0  0  0  0  0  0  0  0  0  2  0  0
   -2.5393    0.2680    0.2869 C   0  0  0  0  0  0  0  0  0  3  0  0
   -1.8616    1.5801    0.6118 C   0  0  0  0  0  0  0  0  0  4  0  0
   -2.9823   -0.5535   -3.2835 H   0  0  0  0  0  0  0  0  0  5  0  0
   -1.6547   -0.6538    0.7007 H   0  0  0  0  0  0  0  0  0  6  0  0
   -3.4058    0.0415    0.9068 H   0  0  0  0  0  0  0  0  0  7  0  0
   -2.4969    2.4281    0.3442 H   0  0  0  0  0  0  0  0  0  8  0  0
   -1.6421    1.6405    1.6785 H   0  0  0  0  0  0  0  0  0  9  0  0
   -0.9226    1.6738    0.0648 H   0  0  0  0  0  0  0  0  0 10  0  0
   -0.6433   -1.4978    1.0078 C   0  0  0  0  0  0  0  0  0 11  0  0
    0.5739   -0.7787    0.6476 C   0  0  0  0  0  0  0  0  0 12  0  0
    1.3151   -0.0809    1.6070 C   0  0  0  0  0  3  0  0  0 13  0  0
    2.4229    0.6651    1.2462 C   0  0  0  0  0  0  0  0  0 14  0  0
    2.8137    0.7378   -0.0841 C   0  0  0  0  0  0  0  0  0 15  0  0
    2.0871    0.0530   -1.0489 C   0  0  0  0  0  0  0  0  0 16  0  0
    0.9810   -0.6958   -0.6888 C   0  0  0  0  0  0  0  0  0 17  0  0
   -0.7844   -1.7029    2.0657 H   0  0  0  0  0  0  0  0  0 18  0  0
   -0.9141   -2.3317    0.3653 H   0  0  0  0  0  0  0  0  0 19  0  0
    1.0131   -0.1295    2.6470 H   0  0  0  0  0  0  0  0  0 20  0  0
    2.9856    1.1939    2.0055 H   0  0  0  0  0  0  0  0  0 21  0  0
    3.6795    1.3228   -0.3666 H   0  0  0  0  0  0  0  0  0 22  0  0
    2.3846    0.1052   -2.0888 H   0  0  0  0  0  0  0  0  0 23  0  0
    0.4089   -1.2176   -1.4470 H   0  0  0  0  0  0  0  0  0 24  0  0
  1  5  1  0
  1  2  1  0
  2  3  1  0
  3  4  1  0
  3  6  1  0
  3  7  1  0
  4 10  1  0
  4  9  1  0
  4  8  1  0
 11 19  1  0
 11 12  1  0
 11 18  1  0
 12 17  1  0
 12 13  1  0
 13 20  1  0
 13 14  1  0
 14 15  1  0
 14 21  1  0
 15 16  1  0
 15 22  1  0
 16 17  1  0
 16 23  1  0
 17 24  1  0
M  RAD  1  13   2
M  END
>  <rmg_smiles>  (3) 
[CH2]C1[CH][CH][CH][CH][CH]1.[CH]CCC

>  <rmg_adjacency_list>  (3) 
multiplicity 2
1  C u0 p0 c0 {2,S} {10,S} {12,S} {13,S}
2  C u0 p0 c0 {1,S} {14,S} {15,S} {16,S}
3  C u0 p0 c0 {4,S} {5,S} {9,S}
4  C u1 p0 c0 {3,S} {6,S} {17,S}
5  C u0 p0 c0 {3,S} {8,S} {21,S}
6  C u0 p0 c0 {4,S} {7,S} {18,S}
7  C u0 p0 c0 {6,S} {8,S} {19,S}
8  C u0 p0 c0 {5,S} {7,S} {20,S}
9  C u0 p0 c0 {3,S} {22,S} {23,S}
10 C u0 p1 c0 {1,S} {11,S}
11 C u0 p1 c0 {10,S} {24,S}
12 H u0 p0 c0 {1,S}
13 H u0 p0 c0 {1,S}
14 H u0 p0 c0 {2,S}
15 H u0 p0 c0 {2,S}
16 H u0 p0 c0 {2,S}
17 H u0 p0 c0 {4,S}
18 H u0 p0 c0 {6,S}
19 H u0 p0 c0 {7,S}
20 H u0 p0 c0 {8,S}
21 H u0 p0 c0 {5,S}
22 H u0 p0 c0 {9,S}
23 H u0 p0 c0 {9,S}
24 H u0 p0 c0 {11,S}


>  <multiplicity>  (3) 
2

>  <reaction>  (3) 
rxn_1271

>  <type>  (3) 
ts

>  <role_mapnums>  (3) 
{"*2": 6, "*1": 3, "*3": 11, "*0": 2, "*4": 12}

>  <role_mapidx>  (3) 
{"*2": 5, "*1": 2, "*3": 10, "*0": 1, "*4": 11}

>  <ordered_mapped_smiles>  (3) 
[CH2:1]([CH2:2][C:3]([C:4]([H:8])([H:9])[H:10])([H:6])[H:7])[H:5].[CH:11]([CH:12]1[C:13]([H:20])[CH:14]([H:21])[CH:15]([H:22])[CH:16]([H:23])[CH:17]1[H:24])([H:18])[H:19]

>  <mol_properties>  (3) 
{"1": {"label": "*0", "atom_type": "C2s"}, "2": {"label": "*1", "atom_type": "Cs"}, "5": {"label": "*2", "atom_type": "H0"}, "10": {"label": "*3", "atom_type": "Cs"}, "11": {"label": "*4", "atom_type": "Cs"}}

>  <level_of_theory>  (3) 
wb97xd/def2tzvp

>  <lot_method>  (3) 
wb97xd

>  <lot_basis>  (3) 
def2tzvp

>  <spin_multiplicity>  (3) 
2.0

>  <optical_isomers>  (3) 
2.0

>  <modes>  (3) 
IdealGasTranslation(mass=(145.102, 'amu')),         NonlinearRotor(             inertia = ([283.83, 766.516, 835.669

>  <frequency_value>  (3) 
-1779.63

>  <frequency_units>  (3) 
cm^-1

>  <frequency_list>  (3) 
unknown

>  <arkane_path>  (3) 
/home/calvin/Dropbox/PersonalFolders/Calvin/HAb_Converged/rxn_1271/output/rxns/TS0/arkane/output.py

>  <path_exists>  (3) 
True

>  <E0_value>  (3) 
-1120210.0

>  <E0_units>  (3) 
kJ/mol

>  <thermo_class>  (3) 
unknown

>  <Cp0_value>  (3) 
unknown

>  <Cp0_units>  (3) 
unknown

>  <CpInf_value>  (3) 
unknown

>  <CpInf_units>  (3) 
unknown

>  <Tmin_value>  (3) 
unknown

>  <Tmin_units>  (3) 
unknown

>  <Tmax_value>  (3) 
unknown

>  <Tmax_units>  (3) 
unknown

>  <polynomials>  (3) 
unknown

>  <H298_value>  (3) 
unknown

>  <H298_units>  (3) 
unknown

>  <S298_value>  (3) 
unknown

>  <S298_units>  (3) 
unknown

>  <Cp_T_value_list>  (3) 
unknown

>  <Cp_T_units>  (3) 
unknown

>  <T_list>  (3) 
unknown

>  <T_units>  (3) 
unknown

>  <yaml_path>  (3) 
unknown

>  <frequencies_cm1>  (3) 
unknown

>  <ZPE_kJmol>  (3) 
unknown

>  <E_elec_kJmol>  (3) 
unknown

>  <E0_minus_Eelec_plus_ZPE_kJmol>  (3) 
unknown

>  <rxn>  (3) 
unknown

>  <species_type>  (3) 
unknown

>  <species_folder>  (3) 
unknown

>  <frequencies_cm1_list>  (3) 
[]

>  <ts_imag_freq_cm1>  (3) 
-1801.2435

>  <ts_freq_out_path>  (3) 
/home/calvin/Dropbox/PersonalFolders/Calvin/HAb_Converged/rxn_1271/output/rxns/TS0/geometry/freq.out

>  <E0_kJmol>  (3) 
-1.12021e+06

>  <H298_kJmol>  (3) 
unknown

$$$$

     RDKit          3D

  9  8  0  0  0  0  0  0  0  0999 V2000
    2.3038   -0.0269    0.1590 C   0  0  0  0  0  0  0  0  0  1  0  0
    1.1426    0.1377   -0.1648 C   0  0  0  0  0  0  0  0  0  2  0  0
   -0.1694    0.3175   -0.5203 C   0  0  0  0  0  3  0  0  0  3  0  0
   -1.3163   -0.1910    0.2856 C   0  0  0  0  0  0  0  0  0  4  0  0
    3.3199   -0.1683    0.4378 H   0  0  0  0  0  0  0  0  0  5  0  0
   -0.3786    0.8584   -1.4360 H   0  0  0  0  0  0  0  0  0  6  0  0
   -1.9694    0.6309    0.5951 H   0  0  0  0  0  0  0  0  0  7  0  0
   -1.9325   -0.8770   -0.3039 H   0  0  0  0  0  0  0  0  0  8  0  0
   -0.9753   -0.7144    1.1774 H   0  0  0  0  0  0  0  0  0  9  0  0
  1  5  1  0
  1  2  1  0
  2  3  1  0
  3  4  1  0
  3  6  1  0
  4  8  1  0
  4  9  1  0
  4  7  1  0
M  RAD  1   3   2
M  END
>  <rmg_smiles>  (4) 
[CH]C[CH]C

>  <rmg_adjacency_list>  (4) 
multiplicity 2
1 C u0 p0 c0 {2,S} {5,S} {6,S} {7,S}
2 C u1 p0 c0 {1,S} {3,S} {8,S}
3 C u0 p1 c0 {2,S} {4,S}
4 C u0 p1 c0 {3,S} {9,S}
5 H u0 p0 c0 {1,S}
6 H u0 p0 c0 {1,S}
7 H u0 p0 c0 {1,S}
8 H u0 p0 c0 {2,S}
9 H u0 p0 c0 {4,S}


>  <multiplicity>  (4) 
2

>  <reaction>  (4) 
rxn_1271

>  <type>  (4) 
r1

>  <role_mapnums>  (4) 
{}

>  <role_mapidx>  (4) 
{}

>  <ordered_mapped_smiles>  (4) 
[CH2:1]([CH2:2][C:3]([C:4]([H:7])([H:8])[H:9])[H:6])[H:5]

>  <level_of_theory>  (4) 
wb97xd/def2tzvp

>  <lot_method>  (4) 
wb97xd

>  <lot_basis>  (4) 
def2tzvp

>  <spin_multiplicity>  (4) 
2.0

>  <optical_isomers>  (4) 
1.0

>  <modes>  (4) 
IdealGasTranslation(mass=(53.0391, 'amu')),         NonlinearRotor(             inertia = ([13.0163, 113.224, 123.133

>  <frequency_value>  (4) 
unknown

>  <frequency_units>  (4) 
unknown

>  <frequency_list>  (4) 
unknown

>  <arkane_path>  (4) 
/home/calvin/Dropbox/PersonalFolders/Calvin/HAb_Converged/rxn_1271/output/Species/rxn_1271_CtC[CH]C/arkane/output.py

>  <path_exists>  (4) 
True

>  <E0_value>  (4) 
-407611.0180987149

>  <E0_units>  (4) 
kJ/mol

>  <thermo_class>  (4) 
NASA

>  <Cp0_value>  (4) 
33.257888

>  <Cp0_units>  (4) 
J/(mol*K)

>  <CpInf_value>  (4) 
207.8618

>  <CpInf_units>  (4) 
J/(mol*K)

>  <Tmin_value>  (4) 
10.0

>  <Tmin_units>  (4) 
K

>  <Tmax_value>  (4) 
3000.0

>  <Tmax_units>  (4) 
K

>  <polynomials>  (4) 
[{"name": "polynomial1", "class": "NASAPolynomial", "Tmin_value": 10.0, "Tmin_units": "K", "Tmax_value": 225.12244092476377, "Tmax_units": "K", "coeffs": [3.9266130103725434, 0.006751552972290672, 0.0001283541194316844, -4.2549688859148007e-07, 4.774737524189803e-10, -49024283.39050682, 9.03931398875942]}, {"name": "polynomial2", "class": "NASAPolynomial", "Tmin_value": 225.12244092476377, "Tmin_units": "K", "Tmax_value": 3000.0, "Tmax_units": "K", "coeffs": [2.698793800089887, 0.02856763785346583, -1.700774111948388e-05, 4.9718456847290095e-09, -5.66009400316375e-13, -49024228.10872656, 13.132014034873661]}]

>  <H298_value>  (4) 
-97417.42510508596

>  <H298_units>  (4) 
kcal/mol

>  <S298_value>  (4) 
72.15152284270778

>  <S298_units>  (4) 
cal/(mol*K)

>  <Cp_T_value_list>  (4) 
[19.609840418917145, 23.266846927668503, 26.46319689496793, 29.246023227567047, 33.746139284951916, 37.090269030960386, 42.123590532288944, 44.75530859912038, 46.19956450688901]

>  <Cp_T_units>  (4) 
cal/(mol*K)

>  <T_list>  (4) 
[300.0, 400.0, 500.0, 600.0, 800.0, 1000.0, 1500.0, 2000.0, 2400.0]

>  <T_units>  (4) 
K

>  <yaml_path>  (4) 
/home/calvin/Dropbox/PersonalFolders/Calvin/HAb_Converged/rxn_1271/output/Species/rxn_1271_CtC[CH]C/rxn_1271_CtCCHC.yml

>  <frequencies_cm1>  (4) 
[83.4682065646, 211.55121675324, 392.1460636839199, 478.7318815838, 554.46786267808, 595.8689171723599, 660.0408949877599, 865.1234115695598, 998.98842339764, 1092.3794237496397, 1143.49726247172, 1380.42198998236, 1394.47184194708, 1461.2464071987597, 1480.32289241772, 2005.2970531463998, 2994.3558157713196, 3043.5921005157197, 3109.55636149964, 3150.5453968747197, 3427.4497129183997]

>  <ZPE_kJmol>  (4) 
182.57126464434097

>  <E_elec_kJmol>  (4) 
-407793.5893633592

>  <E0_minus_Eelec_plus_ZPE_kJmol>  (4) 
0.0

>  <rxn>  (4) 
rxn_1271

>  <species_type>  (4) 
p1

>  <species_folder>  (4) 
rxn_1271_CtC[CH]C

>  <frequencies_cm1_list>  (4) 
[83.4682065646, 211.55121675324, 392.1460636839199, 478.7318815838, 554.46786267808, 595.8689171723599, 660.0408949877599, 865.1234115695598, 998.98842339764, 1092.3794237496397, 1143.49726247172, 1380.42198998236, 1394.47184194708, 1461.2464071987597, 1480.32289241772, 2005.2970531463998, 2994.3558157713196, 3043.5921005157197, 3109.55636149964, 3150.5453968747197, 3427.4497129183997]

>  <E0_kJmol>  (4) 
-407611

>  <H298_kJmol>  (4) 
-407595

$$$$

     RDKit          3D

 14 14  0  0  0  0  0  0  0  0999 V2000
    2.3111    0.1295    0.0255 C   0  0  0  0  0  0  0  0  0  1  0  0
    0.9132    0.0511    0.0101 C   0  0  0  0  0  0  0  0  0  2  0  0
    0.2446   -1.1981    0.0389 C   0  0  0  0  0  3  0  0  0  3  0  0
   -1.1306   -1.2689    0.0235 C   0  0  0  0  0  0  0  0  0  4  0  0
   -1.8967   -0.1062   -0.0209 C   0  0  0  0  0  0  0  0  0  5  0  0
   -1.2644    1.1347   -0.0499 C   0  0  0  0  0  0  0  0  0  6  0  0
    0.1101    1.2180   -0.0350 C   0  0  0  0  0  0  0  0  0  7  0  0
    2.9188   -0.7647    0.0599 H   0  0  0  0  0  0  0  0  0  8  0  0
    2.8158    1.0859    0.0034 H   0  0  0  0  0  0  0  0  0  9  0  0
    0.8353   -2.1058    0.0735 H   0  0  0  0  0  0  0  0  0 10  0  0
   -1.6191   -2.2351    0.0461 H   0  0  0  0  0  0  0  0  0 11  0  0
   -2.9772   -0.1668   -0.0328 H   0  0  0  0  0  0  0  0  0 12  0  0
   -1.8572    2.0404   -0.0845 H   0  0  0  0  0  0  0  0  0 13  0  0
    0.5964    2.1860   -0.0577 H   0  0  0  0  0  0  0  0  0 14  0  0
  1  8  1  0
  1  9  1  0
  1  2  1  0
  2  7  1  0
  2  3  1  0
  3  4  1  0
  3 10  1  0
  4  5  1  0
  4 11  1  0
  5 12  1  0
  5  6  1  0
  6 13  1  0
  6  7  1  0
  7 14  1  0
M  RAD  1   3   2
M  END
>  <rmg_smiles>  (5) 
[CH2]C1[CH][CH][CH][CH][CH]1

>  <rmg_adjacency_list>  (5) 
multiplicity 2
1  C u0 p0 c0 {2,S} {3,S} {7,S}
2  C u1 p0 c0 {1,S} {4,S} {8,S}
3  C u0 p0 c0 {1,S} {6,S} {12,S}
4  C u0 p0 c0 {2,S} {5,S} {9,S}
5  C u0 p0 c0 {4,S} {6,S} {10,S}
6  C u0 p0 c0 {3,S} {5,S} {11,S}
7  C u0 p0 c0 {1,S} {13,S} {14,S}
8  H u0 p0 c0 {2,S}
9  H u0 p0 c0 {4,S}
10 H u0 p0 c0 {5,S}
11 H u0 p0 c0 {6,S}
12 H u0 p0 c0 {3,S}
13 H u0 p0 c0 {7,S}
14 H u0 p0 c0 {7,S}


>  <multiplicity>  (5) 
2

>  <reaction>  (5) 
rxn_1271

>  <type>  (5) 
r2

>  <role_mapnums>  (5) 
{}

>  <role_mapidx>  (5) 
{}

>  <ordered_mapped_smiles>  (5) 
[CH:1]([CH:2]1[C:3]([H:10])[CH:4]([H:11])[CH:5]([H:12])[CH:6]([H:13])[CH:7]1[H:14])([H:8])[H:9]

>  <level_of_theory>  (5) 
wb97xd/def2tzvp

>  <lot_method>  (5) 
wb97xd

>  <lot_basis>  (5) 
def2tzvp

>  <spin_multiplicity>  (5) 
2.0

>  <optical_isomers>  (5) 
1.0

>  <modes>  (5) 
IdealGasTranslation(mass=(91.0548, 'amu')),         NonlinearRotor(             inertia = ([90.2688, 184.999, 275.268

>  <frequency_value>  (5) 
unknown

>  <frequency_units>  (5) 
unknown

>  <frequency_list>  (5) 
unknown

>  <arkane_path>  (5) 
/home/calvin/Dropbox/PersonalFolders/Calvin/HAb_Converged/rxn_1271/output/Species/rxn_1271_[CH2]c1ccccc1/arkane/output.py

>  <path_exists>  (5) 
True

>  <E0_value>  (5) 
-710982.0623900568

>  <E0_units>  (5) 
kJ/mol

>  <thermo_class>  (5) 
NASA

>  <Cp0_value>  (5) 
33.257888

>  <Cp0_units>  (5) 
J/(mol*K)

>  <CpInf_value>  (5) 
332.57888

>  <CpInf_units>  (5) 
J/(mol*K)

>  <Tmin_value>  (5) 
10.0

>  <Tmin_units>  (5) 
K

>  <Tmax_value>  (5) 
3000.0

>  <Tmax_units>  (5) 
K

>  <polynomials>  (5) 
[{"name": "polynomial1", "class": "NASAPolynomial", "Tmin_value": 10.0, "Tmin_units": "K", "Tmax_value": 553.2109116327725, "Tmax_units": "K", "coeffs": [4.142543359170266, -0.014218763448623044, 0.0002576829967730386, -4.632974771235726e-07, 2.671038579104251e-10, -85511387.18347761, 10.487951999207327]}, {"name": "polynomial2", "class": "NASAPolynomial", "Tmin_value": 553.2109116327725, "Tmin_units": "K", "Tmax_value": 3000.0, "Tmax_units": "K", "coeffs": [-0.7942917364053798, 0.057999794075117024, -3.716274122111428e-05, 1.1355675181462914e-08, -1.3253487492588121e-12, -85511399.83577849, 26.331454017928447]}]

>  <H298_value>  (5) 
-169924.63454747986

>  <H298_units>  (5) 
kcal/mol

>  <S298_value>  (5) 
74.98251677136349

>  <S298_units>  (5) 
cal/(mol*K)

>  <Cp_T_value_list>  (5) 
[25.283016477228646, 33.52643449610302, 40.21254898412453, 45.52304279605987, 53.838654413345935, 59.76143508278511, 67.97251227799326, 71.92525612415508, 74.23565128362748]

>  <Cp_T_units>  (5) 
cal/(mol*K)

>  <T_list>  (5) 
[300.0, 400.0, 500.0, 600.0, 800.0, 1000.0, 1500.0, 2000.0, 2400.0]

>  <T_units>  (5) 
K

>  <yaml_path>  (5) 
/home/calvin/Dropbox/PersonalFolders/Calvin/HAb_Converged/rxn_1271/output/Species/rxn_1271_[CH2]c1ccccc1/rxn_1271_CH2c1ccccc1.yml

>  <frequencies_cm1>  (5) 
[200.24815891652, 361.60171298056, 390.17523889708, 478.87608827552, 500.34228438583995, 531.78621016612, 625.85017507948, 685.3594698625999, 711.2686054749599, 777.5487477835999, 833.0683240958, 836.50868374112, 906.74420959408, 969.6801300518798, 974.03379874476, 983.70251407532, 992.09397013636, 1038.3980521491198, 1114.7108600102797, 1165.8355657176799, 1178.3403459854, 1276.27729061924, 1315.886061945, 1345.4965026448397, 1472.9546171693598, 1482.97354875124, 1496.57704667016, 1589.63156474148, 1604.18957361988, 3131.52384753832, 3150.75140643432, 3153.26472306144, 3164.65705170732, 3171.3798303356, 3183.3901876602795, 3230.66251460316]

>  <ZPE_kJmol>  (5) 
299.2207520027369

>  <E_elec_kJmol>  (5) 
-711281.2831420596

>  <E0_minus_Eelec_plus_ZPE_kJmol>  (5) 
0.0

>  <rxn>  (5) 
rxn_1271

>  <species_type>  (5) 
r1

>  <species_folder>  (5) 
rxn_1271_[CH2]c1ccccc1

>  <frequencies_cm1_list>  (5) 
[200.24815891652, 361.60171298056, 390.17523889708, 478.87608827552, 500.34228438583995, 531.78621016612, 625.85017507948, 685.3594698625999, 711.2686054749599, 777.5487477835999, 833.0683240958, 836.50868374112, 906.74420959408, 969.6801300518798, 974.03379874476, 983.70251407532, 992.09397013636, 1038.3980521491198, 1114.7108600102797, 1165.8355657176799, 1178.3403459854, 1276.27729061924, 1315.886061945, 1345.4965026448397, 1472.9546171693598, 1482.97354875124, 1496.57704667016, 1589.63156474148, 1604.18957361988, 3131.52384753832, 3150.75140643432, 3153.26472306144, 3164.65705170732, 3171.3798303356, 3183.3901876602795, 3230.66251460316]

>  <E0_kJmol>  (5) 
-710982

>  <H298_kJmol>  (5) 
-710965

$$$$
