
     RDKit          3D

 13 12  0  0  0  0  0  0  0  0999 V2000
   -1.0903   -1.0844   -1.6485 C   0  0  0  0  0  0  0  0  0  1  0  0
   -0.2036   -0.3195   -1.0228 C   0  0  0  0  0  0  0  0  0  2  0  0
   -0.5282    0.6461    0.0438 C   0  0  0  0  0  0  0  0  0  3  0  0
    0.3729    0.7360    1.2161 C   0  0  0  0  0  0  0  0  0  4  0  0
    1.4659    0.0144    1.4351 C   0  0  0  0  0  0  0  0  0  5  0  0
   -0.7978   -1.7463   -2.4537 H   0  0  0  0  0  0  0  0  0  6  0  0
   -2.1392   -1.0773   -1.3724 H   0  0  0  0  0  0  0  0  0  7  0  0
    0.8366   -0.3594   -1.3350 H   0  0  0  0  0  0  0  0  0  8  0  0
   -0.4793    1.6340   -0.4194 H   0  0  0  0  0  0  0  0  0  9  0  0
   -1.5785    0.6023    0.3403 H   0  0  0  0  0  0  0  0  0 10  0  0
    0.0958    1.4918    1.9463 H   0  0  0  0  0  0  0  0  0 11  0  0
    1.7867   -0.7675    0.7573 H   0  0  0  0  0  0  0  0  0 12  0  0
    2.0707    0.1750    2.3182 H   0  0  0  0  0  0  0  0  0 13  0  0
  1  7  1  0
  1  6  1  0
  1  2  1  0
  2  8  1  0
  2  3  1  0
  3  4  1  0
  3  9  1  0
  3 10  1  0
  4  5  1  0
  4 11  1  0
  5 12  1  0
  5 13  1  0
M  END
>  <rmg_smiles>  (1) 
[CH2][CH]C[CH][CH2]

>  <rmg_adjacency_list>  (1) 
1  C u0 p0 c0 {2,S} {3,S} {6,S} {7,S}
2  C u0 p0 c0 {1,S} {4,S} {8,S}
3  C u0 p0 c0 {1,S} {5,S} {9,S}
4  C u0 p0 c0 {2,S} {10,S} {11,S}
5  C u0 p0 c0 {3,S} {12,S} {13,S}
6  H u0 p0 c0 {1,S}
7  H u0 p0 c0 {1,S}
8  H u0 p0 c0 {2,S}
9  H u0 p0 c0 {3,S}
10 H u0 p0 c0 {4,S}
11 H u0 p0 c0 {4,S}
12 H u0 p0 c0 {5,S}
13 H u0 p0 c0 {5,S}


>  <multiplicity>  (1) 
1

>  <reaction>  (1) 
rxn_1126

>  <type>  (1) 
r1h

>  <role_mapnums>  (1) 
{"r1h_a": 3, "r1h_h": 9}

>  <role_mapidx>  (1) 
{"r1h_a": 2, "r1h_h": 8}

>  <ordered_mapped_smiles>  (1) 
[CH:1]([CH:2]([C:3]([CH:4]([CH:5]([H:12])[H:13])[H:11])([H:9])[H:10])[H:8])([H:6])[H:7]

>  <mol_properties>  (1) 
{"2": {"label": "donator", "atom_type": "Cs"}, "8": {"label": "d_hydrogen", "atom_type": "H0"}}

>  <level_of_theory>  (1) 
wb97xd/def2tzvp

>  <lot_method>  (1) 
wb97xd

>  <lot_basis>  (1) 
def2tzvp

>  <spin_multiplicity>  (1) 
1.0

>  <optical_isomers>  (1) 
2.0

>  <modes>  (1) 
IdealGasTranslation(mass=(68.0626, 'amu')),         NonlinearRotor(             inertia = ([45.0412, 159.938, 187.579

>  <frequency_value>  (1) 
unknown

>  <frequency_units>  (1) 
unknown

>  <frequency_list>  (1) 
unknown

>  <arkane_path>  (1) 
/home/calvin/Dropbox/PersonalFolders/Calvin/HAb_Converged/rxn_1126/output/Species/rxn_1126_C=CCC=C/arkane/output.py

>  <path_exists>  (1) 
True

>  <E0_value>  (1) 
-512473.3799039456

>  <E0_units>  (1) 
kJ/mol

>  <thermo_class>  (1) 
NASA

>  <Cp0_value>  (1) 
33.257888

>  <Cp0_units>  (1) 
J/(mol*K)

>  <CpInf_value>  (1) 
307.635464

>  <CpInf_units>  (1) 
J/(mol*K)

>  <Tmin_value>  (1) 
10.0

>  <Tmin_units>  (1) 
K

>  <Tmax_value>  (1) 
3000.0

>  <Tmax_units>  (1) 
K

>  <polynomials>  (1) 
[{"name": "polynomial1", "class": "NASAPolynomial", "Tmin_value": 10.0, "Tmin_units": "K", "Tmax_value": 819.4804820196184, "Tmax_units": "K", "coeffs": [3.8786961323103277, 0.01518848526354921, 5.629175519915376e-05, -8.158967068239976e-08, 3.30459758185792e-11, -61636312.679365546, 10.298540277465028]}, {"name": "polynomial2", "class": "NASAPolynomial", "Tmin_value": 819.4804820196184, "Tmin_units": "K", "Tmax_value": 3000.0, "Tmax_units": "K", "coeffs": [0.9713570478533602, 0.04440309225960069, -2.468286623666531e-05, 6.656489578832237e-09, -7.002700885295111e-13, -61636340.62723716, 20.6681030649648]}]

>  <H298_value>  (1) 
-122479.74618776135

>  <H298_units>  (1) 
kcal/mol

>  <S298_value>  (1) 
77.03784100856907

>  <S298_units>  (1) 
cal/(mol*K)

>  <Cp_T_value_list>  (1) 
[22.98452912921813, 28.98342495343222, 34.60231709225981, 39.57761952390819, 47.33114131422195, 52.95468648559353, 61.52407504834919, 65.76395981018108, 67.86608281001313]

>  <Cp_T_units>  (1) 
cal/(mol*K)

>  <T_list>  (1) 
[300.0, 400.0, 500.0, 600.0, 800.0, 1000.0, 1500.0, 2000.0, 2400.0]

>  <T_units>  (1) 
K

>  <yaml_path>  (1) 
/home/calvin/Dropbox/PersonalFolders/Calvin/HAb_Converged/rxn_1126/output/Species/rxn_1126_C=CCC=C/rxn_1126_C=CCC=C.yml

>  <frequencies_cm1>  (1) 
[87.95234797856001, 151.90458226372, 257.19606817528, 416.50326061396, 498.01437636235994, 571.25077480016, 682.49593698416, 887.8393990081199, 919.5923391278, 958.3564712591999, 961.16506825508, 963.55477914644, 1034.0581174268798, 1039.2220903875198, 1080.8909573092799, 1137.2757737718, 1245.9046145488799, 1315.20623039832, 1324.3393208739199, 1346.8492987528798, 1434.93211945252, 1443.44718124932, 1463.70478794332, 1713.3403052812798, 1720.18668964532, 2995.26912481888, 3030.3800207600398, 3111.8568015818396, 3116.1074654949202, 3123.6062134643594, 3128.7427184837197, 3202.1645255251597, 3207.6031778986]

>  <ZPE_kJmol>  (1) 
296.4999886896896

>  <E_elec_kJmol>  (1) 
-512769.8798926352

>  <E0_minus_Eelec_plus_ZPE_kJmol>  (1) 
0.0

>  <rxn>  (1) 
rxn_1126

>  <species_type>  (1) 
r1

>  <species_folder>  (1) 
rxn_1126_C=CCC=C

>  <frequencies_cm1_list>  (1) 
[87.95234797856001, 151.90458226372, 257.19606817528, 416.50326061396, 498.01437636235994, 571.25077480016, 682.49593698416, 887.8393990081199, 919.5923391278, 958.3564712591999, 961.16506825508, 963.55477914644, 1034.0581174268798, 1039.2220903875198, 1080.8909573092799, 1137.2757737718, 1245.9046145488799, 1315.20623039832, 1324.3393208739199, 1346.8492987528798, 1434.93211945252, 1443.44718124932, 1463.70478794332, 1713.3403052812798, 1720.18668964532, 2995.26912481888, 3030.3800207600398, 3111.8568015818396, 3116.1074654949202, 3123.6062134643594, 3128.7427184837197, 3202.1645255251597, 3207.6031778986]

>  <E0_kJmol>  (1) 
-512473

>  <H298_kJmol>  (1) 
-512455

$$$$

     RDKit          3D

  5  4  0  0  0  0  0  0  0  0999 V2000
    0.0016    0.0456   -0.0213 C   0  0  0  0  0  0  0  0  0  1  0  0
   -0.5609    0.6811    0.6535 H   0  0  0  0  0  0  0  0  0  2  0  0
   -0.4641   -0.1466   -0.9812 H   0  0  0  0  0  0  0  0  0  3  0  0
    1.0708    0.2239   -0.0463 H   0  0  0  0  0  0  0  0  0  4  0  0
   -0.0466   -0.9301    0.4489 H   0  0  0  0  0  0  0  0  0  5  0  0
  1  3  1  0
  1  5  1  0
  1  4  1  0
  1  2  1  0
M  END
>  <rmg_smiles>  (2) 
C

>  <rmg_adjacency_list>  (2) 
1 C u0 p0 c0 {2,S} {3,S} {4,S} {5,S}
2 H u0 p0 c0 {1,S}
3 H u0 p0 c0 {1,S}
4 H u0 p0 c0 {1,S}
5 H u0 p0 c0 {1,S}


>  <multiplicity>  (2) 
1

>  <reaction>  (2) 
rxn_1126

>  <type>  (2) 
r2h

>  <role_mapnums>  (2) 
{"r2h_a": 1, "r2h_h": 5}

>  <role_mapidx>  (2) 
{"r2h_a": 0, "r2h_h": 4}

>  <ordered_mapped_smiles>  (2) 
[C:1]([H:2])([H:3])([H:4])[H:5]

>  <mol_properties>  (2) 
{"0": {"label": "acceptor", "atom_type": "Cs"}, "4": {"label": "a_hydrogen", "atom_type": "H0"}}

>  <level_of_theory>  (2) 
wb97xd/def2tzvp

>  <lot_method>  (2) 
wb97xd

>  <lot_basis>  (2) 
def2tzvp

>  <spin_multiplicity>  (2) 
1.0

>  <optical_isomers>  (2) 
1.0

>  <modes>  (2) 
IdealGasTranslation(mass=(16.0313, 'amu')),         NonlinearRotor(             inertia = ([3.18679, 3.18679, 3.18679

>  <frequency_value>  (2) 
unknown

>  <frequency_units>  (2) 
unknown

>  <frequency_list>  (2) 
unknown

>  <arkane_path>  (2) 
/home/calvin/Dropbox/PersonalFolders/Calvin/HAb_Converged/rxn_1126/output/Species/rxn_1126_C/arkane/output.py

>  <path_exists>  (2) 
True

>  <E0_value>  (2) 
-106268.5262916272

>  <E0_units>  (2) 
kJ/mol

>  <thermo_class>  (2) 
NASA

>  <Cp0_value>  (2) 
33.257888

>  <Cp0_units>  (2) 
J/(mol*K)

>  <CpInf_value>  (2) 
108.088136

>  <CpInf_units>  (2) 
J/(mol*K)

>  <Tmin_value>  (2) 
10.0

>  <Tmin_units>  (2) 
K

>  <Tmax_value>  (2) 
3000.0

>  <Tmax_units>  (2) 
K

>  <polynomials>  (2) 
[{"name": "polynomial1", "class": "NASAPolynomial", "Tmin_value": 10.0, "Tmin_units": "K", "Tmax_value": 616.7595780986624, "Tmax_units": "K", "coeffs": [4.041420799946622, -0.002477807655966685, 1.1290457802459216e-05, 3.700688819348292e-09, -9.366412561864162e-12, -12781153.318458663, -0.42637433538586406]}, {"name": "polynomial2", "class": "NASAPolynomial", "Tmin_value": 616.7595780986624, "Tmin_units": "K", "Tmax_value": 3000.0, "Tmax_units": "K", "coeffs": [0.6800320423470843, 0.011684066325645743, -4.5749540261290126e-06, 7.694671628924811e-10, -3.8768177461555664e-14, -12780593.404419335, 15.343675764562182]}]

>  <H298_value>  (2) 
-25396.41264990868

>  <H298_units>  (2) 
kcal/mol

>  <S298_value>  (2) 
44.46392088520575

>  <S298_units>  (2) 
cal/(mol*K)

>  <Cp_T_value_list>  (2) 
[8.621039065772948, 9.645572285350525, 10.934239595808906, 12.330144838344452, 14.859142397339834, 16.9306880471269, 20.49440393107996, 22.423230884533538, 23.291918246513866]

>  <Cp_T_units>  (2) 
cal/(mol*K)

>  <T_list>  (2) 
[300.0, 400.0, 500.0, 600.0, 800.0, 1000.0, 1500.0, 2000.0, 2400.0]

>  <T_units>  (2) 
K

>  <yaml_path>  (2) 
/home/calvin/Dropbox/PersonalFolders/Calvin/HAb_Converged/rxn_1126/output/Species/rxn_1126_C/rxn_1126_C.yml

>  <frequencies_cm1>  (2) 
[1326.5504901469599, 1326.5504901469599, 1326.5504901469599, 1542.24249904816, 1542.24249904816, 3008.8382878112, 3127.32125252248, 3127.32125252248, 3127.32125252248]

>  <ZPE_kJmol>  (2) 
116.36640738144024

>  <E_elec_kJmol>  (2) 
-106384.89269900863

>  <E0_minus_Eelec_plus_ZPE_kJmol>  (2) 
0.0

>  <rxn>  (2) 
rxn_1126

>  <species_type>  (2) 
p0

>  <species_folder>  (2) 
rxn_1126_C

>  <frequencies_cm1_list>  (2) 
[1326.5504901469599, 1326.5504901469599, 1326.5504901469599, 1542.24249904816, 1542.24249904816, 3008.8382878112, 3127.32125252248, 3127.32125252248, 3127.32125252248]

>  <E0_kJmol>  (2) 
-106269

>  <H298_kJmol>  (2) 
-106259

$$$$

     RDKit          3D

 17 15  0  0  0  0  0  0  0  0999 V2000
   -0.3466    2.5569   -0.9251 C   0  0  0  0  0  3  0  0  0  1  0  0
   -0.9091    3.1924   -0.2504 H   0  0  0  0  0  0  0  0  0  2  0  0
   -0.8123    2.3646   -1.8850 H   0  0  0  0  0  0  0  0  0  3  0  0
    0.7226    2.7351   -0.9502 H   0  0  0  0  0  0  0  0  0  4  0  0
   -1.0308   -1.6456   -1.4409 C   0  0  0  0  0  0  0  0  0  5  0  0
   -0.1441   -0.8807   -0.8152 C   0  0  0  0  0  0  0  0  0  6  0  0
   -0.4687    0.0849    0.2514 C   0  0  0  0  0  0  0  0  0  7  0  0
    0.4323    0.1748    1.4237 C   0  0  0  0  0  0  0  0  0  8  0  0
    1.5253   -0.5468    1.6427 C   0  0  0  0  0  0  0  0  0  9  0  0
   -0.7383   -2.3074   -2.2461 H   0  0  0  0  0  0  0  0  0 10  0  0
   -2.0798   -1.6384   -1.1649 H   0  0  0  0  0  0  0  0  0 11  0  0
    0.8960   -0.9206   -1.1274 H   0  0  0  0  0  0  0  0  0 12  0  0
   -0.4131    1.2099   -0.2761 H   0  0  0  0  0  0  0  0  0 13  0  0
   -1.5190    0.0412    0.5479 H   0  0  0  0  0  0  0  0  0 14  0  0
    0.1553    0.9306    2.1539 H   0  0  0  0  0  0  0  0  0 15  0  0
    1.8462   -1.3287    0.9649 H   0  0  0  0  0  0  0  0  0 16  0  0
    2.1302   -0.3861    2.5258 H   0  0  0  0  0  0  0  0  0 17  0  0
  1  2  1  0
  1  4  1  0
  1  3  1  0
  5 11  1  0
  5  6  1  0
  5 10  1  0
  6  7  1  0
  6 12  1  0
  7 13  1  0
  7 14  1  0
  7  8  1  0
  8  9  1  0
  8 15  1  0
  9 17  1  0
  9 16  1  0
M  RAD  1   1   2
M  END
>  <rmg_smiles>  (3) 
[CH2][CH]C[CH][CH2].[CH3]

>  <rmg_adjacency_list>  (3) 
multiplicity 2
1  C u0 p0 c0 {2,S} {3,S} {7,S} {8,S}
2  C u0 p0 c0 {1,S} {4,S} {9,S}
3  C u0 p0 c0 {1,S} {5,S} {10,S}
4  C u0 p0 c0 {2,S} {11,S} {12,S}
5  C u0 p0 c0 {3,S} {13,S} {14,S}
6  C u1 p0 c0 {15,S} {16,S} {17,S}
7  H u0 p0 c0 {1,S}
8  H u0 p0 c0 {1,S}
9  H u0 p0 c0 {2,S}
10 H u0 p0 c0 {3,S}
11 H u0 p0 c0 {4,S}
12 H u0 p0 c0 {4,S}
13 H u0 p0 c0 {5,S}
14 H u0 p0 c0 {5,S}
15 H u0 p0 c0 {6,S}
16 H u0 p0 c0 {6,S}
17 H u0 p0 c0 {6,S}


>  <multiplicity>  (3) 
2

>  <reaction>  (3) 
rxn_1126

>  <type>  (3) 
ts

>  <role_mapnums>  (3) 
{"*2": 13, "*1": 7, "*3": 1, "*0": 6, "*4": 2}

>  <role_mapidx>  (3) 
{"*2": 12, "*1": 6, "*3": 0, "*0": 5, "*4": 1}

>  <ordered_mapped_smiles>  (3) 
[C:1]([H:2])([H:3])[H:4].[CH:5]([CH:6]([C:7]([CH:8]([CH:9]([H:16])[H:17])[H:15])([H:13])[H:14])[H:12])([H:10])[H:11]

>  <mol_properties>  (3) 
{"0": {"label": "*3", "atom_type": "Cs"}, "1": {"label": "*4", "atom_type": "H0"}, "5": {"label": "*0", "atom_type": "Cs"}, "6": {"label": "*1", "atom_type": "Cs"}, "12": {"label": "*2", "atom_type": "H0"}}

>  <level_of_theory>  (3) 
wb97xd/def2tzvp

>  <lot_method>  (3) 
wb97xd

>  <lot_basis>  (3) 
def2tzvp

>  <spin_multiplicity>  (3) 
2.0

>  <optical_isomers>  (3) 
2.0

>  <modes>  (3) 
IdealGasTranslation(mass=(83.0861, 'amu')),         NonlinearRotor(             inertia = ([180.096, 190.835, 332.598

>  <frequency_value>  (3) 
-1448.64

>  <frequency_units>  (3) 
cm^-1

>  <frequency_list>  (3) 
unknown

>  <arkane_path>  (3) 
/home/calvin/Dropbox/PersonalFolders/Calvin/HAb_Converged/rxn_1126/output/rxns/TS0/arkane/output.py

>  <path_exists>  (3) 
True

>  <E0_value>  (3) 
-616965.0

>  <E0_units>  (3) 
kJ/mol

>  <thermo_class>  (3) 
unknown

>  <Cp0_value>  (3) 
unknown

>  <Cp0_units>  (3) 
unknown

>  <CpInf_value>  (3) 
unknown

>  <CpInf_units>  (3) 
unknown

>  <Tmin_value>  (3) 
unknown

>  <Tmin_units>  (3) 
unknown

>  <Tmax_value>  (3) 
unknown

>  <Tmax_units>  (3) 
unknown

>  <polynomials>  (3) 
unknown

>  <H298_value>  (3) 
unknown

>  <H298_units>  (3) 
unknown

>  <S298_value>  (3) 
unknown

>  <S298_units>  (3) 
unknown

>  <Cp_T_value_list>  (3) 
unknown

>  <Cp_T_units>  (3) 
unknown

>  <T_list>  (3) 
unknown

>  <T_units>  (3) 
unknown

>  <yaml_path>  (3) 
unknown

>  <frequencies_cm1>  (3) 
unknown

>  <ZPE_kJmol>  (3) 
unknown

>  <E_elec_kJmol>  (3) 
unknown

>  <E0_minus_Eelec_plus_ZPE_kJmol>  (3) 
unknown

>  <rxn>  (3) 
unknown

>  <species_type>  (3) 
unknown

>  <species_folder>  (3) 
unknown

>  <frequencies_cm1_list>  (3) 
[]

>  <ts_imag_freq_cm1>  (3) 
-1466.2358

>  <ts_freq_out_path>  (3) 
/home/calvin/Dropbox/PersonalFolders/Calvin/HAb_Converged/rxn_1126/output/rxns/TS0/geometry/freq.out

>  <E0_kJmol>  (3) 
-616965

>  <H298_kJmol>  (3) 
unknown

$$$$

     RDKit          3D

 12 11  0  0  0  0  0  0  0  0999 V2000
   -2.3791    0.4612   -0.5870 C   0  0  0  0  0  0  0  0  0  1  0  0
   -1.3422   -0.3138   -0.1893 C   0  0  0  0  0  0  0  0  0  2  0  0
   -1.4723   -1.6058    0.3589 C   0  0  0  0  0  3  0  0  0  3  0  0
   -0.3798   -2.3973    0.7671 C   0  0  0  0  0  0  0  0  0  4  0  0
   -0.4849   -3.6397    1.2956 C   0  0  0  0  0  0  0  0  0  5  0  0
   -2.2205    1.4472   -1.0017 H   0  0  0  0  0  0  0  0  0  6  0  0
   -3.4026    0.1153   -0.5011 H   0  0  0  0  0  0  0  0  0  7  0  0
   -0.3330    0.0765   -0.2952 H   0  0  0  0  0  0  0  0  0  8  0  0
   -2.4723   -2.0151    0.4735 H   0  0  0  0  0  0  0  0  0  9  0  0
    0.6117   -1.9687    0.6436 H   0  0  0  0  0  0  0  0  0 10  0  0
    0.3893   -4.2030    1.5920 H   0  0  0  0  0  0  0  0  0 11  0  0
   -1.4516   -4.1084    1.4378 H   0  0  0  0  0  0  0  0  0 12  0  0
  1  7  1  0
  1  6  1  0
  1  2  1  0
  2  8  1  0
  2  3  1  0
  3  4  1  0
  3  9  1  0
  4  5  1  0
  4 10  1  0
  5 11  1  0
  5 12  1  0
M  RAD  1   3   2
M  END
>  <rmg_smiles>  (4) 
[CH2][CH][CH][CH][CH2]

>  <rmg_adjacency_list>  (4) 
multiplicity 2
1  C u1 p0 c0 {2,S} {3,S} {7,S}
2  C u0 p0 c0 {1,S} {4,S} {6,S}
3  C u0 p0 c0 {1,S} {5,S} {8,S}
4  C u0 p0 c0 {2,S} {9,S} {10,S}
5  C u0 p0 c0 {3,S} {11,S} {12,S}
6  H u0 p0 c0 {2,S}
7  H u0 p0 c0 {1,S}
8  H u0 p0 c0 {3,S}
9  H u0 p0 c0 {4,S}
10 H u0 p0 c0 {4,S}
11 H u0 p0 c0 {5,S}
12 H u0 p0 c0 {5,S}


>  <multiplicity>  (4) 
2

>  <reaction>  (4) 
rxn_1126

>  <type>  (4) 
r1

>  <role_mapnums>  (4) 
{}

>  <role_mapidx>  (4) 
{}

>  <ordered_mapped_smiles>  (4) 
[CH:1]([CH:2]([C:3]([CH:4]([CH:5]([H:11])[H:12])[H:10])[H:9])[H:8])([H:6])[H:7]

>  <level_of_theory>  (4) 
wb97xd/def2tzvp

>  <lot_method>  (4) 
wb97xd

>  <lot_basis>  (4) 
def2tzvp

>  <spin_multiplicity>  (4) 
2.0

>  <optical_isomers>  (4) 
1.0

>  <modes>  (4) 
IdealGasTranslation(mass=(67.0548, 'amu')),         NonlinearRotor(             inertia = ([15.7789, 219.5, 235.279

>  <frequency_value>  (4) 
unknown

>  <frequency_units>  (4) 
unknown

>  <frequency_list>  (4) 
unknown

>  <arkane_path>  (4) 
/home/calvin/Dropbox/PersonalFolders/Calvin/HAb_Converged/rxn_1126/output/Species/rxn_1126_C=C[CH]C=C/arkane/output.py

>  <path_exists>  (4) 
True

>  <E0_value>  (4) 
-510855.5740840656

>  <E0_units>  (4) 
kJ/mol

>  <thermo_class>  (4) 
NASA

>  <Cp0_value>  (4) 
33.257888

>  <Cp0_units>  (4) 
J/(mol*K)

>  <CpInf_value>  (4) 
282.692048

>  <CpInf_units>  (4) 
J/(mol*K)

>  <Tmin_value>  (4) 
10.0

>  <Tmin_units>  (4) 
K

>  <Tmax_value>  (4) 
3000.0

>  <Tmax_units>  (4) 
K

>  <polynomials>  (4) 
[{"name": "polynomial1", "class": "NASAPolynomial", "Tmin_value": 10.0, "Tmin_units": "K", "Tmax_value": 495.6389949168232, "Tmax_units": "K", "coeffs": [3.9320577873257285, 0.004240283642988306, 0.00013490757195769133, -2.633230167682393e-07, 1.6265620535113686e-10, -61441731.25618626, 9.35020846186241]}, {"name": "polynomial2", "class": "NASAPolynomial", "Tmin_value": 495.6389949168232, "Tmin_units": "K", "Tmax_value": 3000.0, "Tmax_units": "K", "coeffs": [0.46820193837407664, 0.04513114129568573, -2.7994403583140814e-05, 8.450074169568166e-09, -9.873128269078105e-13, -61441546.78571627, 22.027084361592905]}]

>  <H298_value>  (4) 
-122093.21999067123

>  <H298_units>  (4) 
kcal/mol

>  <S298_value>  (4) 
73.53287706169851

>  <S298_units>  (4) 
cal/(mol*K)

>  <Cp_T_value_list>  (4) 
[22.959425131058183, 28.86359523830624, 33.84157806333094, 38.087121136790294, 44.86860166766972, 49.81469837846264, 57.02931907034297, 60.72199262606008, 62.78048690125866]

>  <Cp_T_units>  (4) 
cal/(mol*K)

>  <T_list>  (4) 
[300.0, 400.0, 500.0, 600.0, 800.0, 1000.0, 1500.0, 2000.0, 2400.0]

>  <T_units>  (4) 
K

>  <yaml_path>  (4) 
/home/calvin/Dropbox/PersonalFolders/Calvin/HAb_Converged/rxn_1126/output/Species/rxn_1126_C=C[CH]C=C/rxn_1126_C=CCHC=C.yml

>  <frequencies_cm1>  (4) 
[152.447074104, 206.60012033752, 248.40632696568, 457.56783282756, 491.88902545691997, 588.69978449828, 627.8209998663199, 832.6631719619199, 870.4315912219199, 882.064264354, 920.7322586909199, 984.0870652532399, 1007.05026416332, 1023.1327437827599, 1134.86546192448, 1248.1157838219199, 1283.31595057224, 1294.9760916455998, 1300.263670342, 1433.84713577196, 1468.49107671136, 1516.66297873116, 1589.96804702216, 3115.7572492435997, 3116.0319286563995, 3124.4645866293595, 3126.14013104744, 3128.61224576264, 3219.8676136801196, 3219.9431505186403]

>  <ZPE_kJmol>  (4) 
260.87520327866343

>  <E_elec_kJmol>  (4) 
-511116.4492873443

>  <E0_minus_Eelec_plus_ZPE_kJmol>  (4) 
0.0

>  <rxn>  (4) 
rxn_1126

>  <species_type>  (4) 
p1

>  <species_folder>  (4) 
rxn_1126_C=C[CH]C=C

>  <frequencies_cm1_list>  (4) 
[152.447074104, 206.60012033752, 248.40632696568, 457.56783282756, 491.88902545691997, 588.69978449828, 627.8209998663199, 832.6631719619199, 870.4315912219199, 882.064264354, 920.7322586909199, 984.0870652532399, 1007.05026416332, 1023.1327437827599, 1134.86546192448, 1248.1157838219199, 1283.31595057224, 1294.9760916455998, 1300.263670342, 1433.84713577196, 1468.49107671136, 1516.66297873116, 1589.96804702216, 3115.7572492435997, 3116.0319286563995, 3124.4645866293595, 3126.14013104744, 3128.61224576264, 3219.8676136801196, 3219.9431505186403]

>  <E0_kJmol>  (4) 
-510856

>  <H298_kJmol>  (4) 
-510838

$$$$

     RDKit          3D

  4  3  0  0  0  0  0  0  0  0999 V2000
    0.0000    0.0000    0.0000 C   0  0  0  0  0  3  0  0  0  1  0  0
    1.0638   -0.1747    0.0540 H   0  0  0  0  0  0  0  0  0  2  0  0
   -0.6833   -0.8351   -0.0280 H   0  0  0  0  0  0  0  0  0  3  0  0
   -0.3805    1.0098   -0.0260 H   0  0  0  0  0  0  0  0  0  4  0  0
  1  3  1  0
  1  4  1  0
  1  2  1  0
M  RAD  1   1   2
M  END
>  <rmg_smiles>  (5) 
[CH3]

>  <rmg_adjacency_list>  (5) 
multiplicity 2
1 C u1 p0 c0 {2,S} {3,S} {4,S}
2 H u0 p0 c0 {1,S}
3 H u0 p0 c0 {1,S}
4 H u0 p0 c0 {1,S}


>  <multiplicity>  (5) 
2

>  <reaction>  (5) 
rxn_1126

>  <type>  (5) 
r2

>  <role_mapnums>  (5) 
{}

>  <role_mapidx>  (5) 
{}

>  <ordered_mapped_smiles>  (5) 
[C:1]([H:2])([H:3])[H:4]

>  <level_of_theory>  (5) 
wb97xd/def2tzvp

>  <lot_method>  (5) 
wb97xd

>  <lot_basis>  (5) 
def2tzvp

>  <spin_multiplicity>  (5) 
2.0

>  <optical_isomers>  (5) 
1.0

>  <modes>  (5) 
IdealGasTranslation(mass=(15.0235, 'amu')),         NonlinearRotor(             inertia = ([1.76141, 1.76141, 3.52282

>  <frequency_value>  (5) 
unknown

>  <frequency_units>  (5) 
unknown

>  <frequency_list>  (5) 
unknown

>  <arkane_path>  (5) 
/home/calvin/Dropbox/PersonalFolders/Calvin/HAb_Converged/rxn_1126/output/Species/rxn_1126_[CH3]/arkane/output.py

>  <path_exists>  (5) 
True

>  <E0_value>  (5) 
-104520.13119505512

>  <E0_units>  (5) 
kJ/mol

>  <thermo_class>  (5) 
NASA

>  <Cp0_value>  (5) 
33.257888

>  <Cp0_units>  (5) 
J/(mol*K)

>  <CpInf_value>  (5) 
83.14472

>  <CpInf_units>  (5) 
J/(mol*K)

>  <Tmin_value>  (5) 
10.0

>  <Tmin_units>  (5) 
K

>  <Tmax_value>  (5) 
3000.0

>  <Tmax_units>  (5) 
K

>  <polynomials>  (5) 
[{"name": "polynomial1", "class": "NASAPolynomial", "Tmin_value": 10.0, "Tmin_units": "K", "Tmax_value": 646.6680568167106, "Tmax_units": "K", "coeffs": [3.9912271000461548, 0.0004274218009639198, 9.38132315134313e-06, -1.0944874554220949e-08, 4.263406085556096e-12, -12570867.748368958, 0.20527673099681187]}, {"name": "polynomial2", "class": "NASAPolynomial", "Tmin_value": 646.6680568167106, "Tmin_units": "K", "Tmax_value": 3000.0, "Tmax_units": "K", "coeffs": [3.2488827598675174, 0.0050187516265713635, -1.2675301815554908e-06, 3.215102013021586e-11, 2.0164394281080815e-14, -12570771.728238096, 3.4631324604304954]}]

>  <H298_value>  (5) 
-24978.383291331436

>  <H298_units>  (5) 
kcal/mol

>  <S298_value>  (5) 
46.49953999396709

>  <S298_units>  (5) 
cal/(mol*K)

>  <Cp_T_value_list>  (5) 
[9.345424201068383, 10.07887042200736, 10.827537754048599, 11.552428339520182, 12.871902382304132, 14.014614114932202, 16.167234911840477, 17.479674567657305, 18.096247059343543]

>  <Cp_T_units>  (5) 
cal/(mol*K)

>  <T_list>  (5) 
[300.0, 400.0, 500.0, 600.0, 800.0, 1000.0, 1500.0, 2000.0, 2400.0]

>  <T_units>  (5) 
K

>  <yaml_path>  (5) 
/home/calvin/Dropbox/PersonalFolders/Calvin/HAb_Converged/rxn_1126/output/Species/rxn_1126_[CH3]/rxn_1126_CH3.yml

>  <frequencies_cm1>  (5) 
[520.22220688724, 1393.4280601784399, 1393.43492716376, 3088.8592677451597, 3268.6163424668, 3268.6232094521197]

>  <ZPE_kJmol>  (5) 
77.35764153782172

>  <E_elec_kJmol>  (5) 
-104597.48883659294

>  <E0_minus_Eelec_plus_ZPE_kJmol>  (5) 
0.0

>  <rxn>  (5) 
rxn_1126

>  <species_type>  (5) 
r0

>  <species_folder>  (5) 
rxn_1126_[CH3]

>  <frequencies_cm1_list>  (5) 
[520.22220688724, 1393.4280601784399, 1393.43492716376, 3088.8592677451597, 3268.6163424668, 3268.6232094521197]

>  <E0_kJmol>  (5) 
-104520

>  <H298_kJmol>  (5) 
-104510

$$$$
