
     RDKit          3D

 13 12  0  0  0  0  0  0  0  0999 V2000
    0.3861   -0.6648   -1.8001 C   0  0  0  0  0  0  0  0  0  1  0  0
   -0.5146   -0.7598   -0.8328 C   0  0  0  0  0  0  0  0  0  2  0  0
   -0.9437    0.3631    0.0424 C   0  0  0  0  0  0  0  0  0  3  0  0
   -0.1048    0.7135    1.2052 C   0  0  0  0  0  0  0  0  0  4  0  0
    1.1465    0.3145    1.4254 C   0  0  0  0  0  0  0  0  0  5  0  0
    0.6620   -1.5235   -2.3987 H   0  0  0  0  0  0  0  0  0  6  0  0
    0.8676    0.2788   -2.0322 H   0  0  0  0  0  0  0  0  0  7  0  0
   -0.9895   -1.7198   -0.6461 H   0  0  0  0  0  0  0  0  0  8  0  0
   -0.9511    1.2546   -0.5865 H   0  0  0  0  0  0  0  0  0  9  0  0
   -1.9977    0.2965    0.3164 H   0  0  0  0  0  0  0  0  0 10  0  0
   -0.5705    1.3869    1.9192 H   0  0  0  0  0  0  0  0  0 11  0  0
    1.6554   -0.3589    0.7465 H   0  0  0  0  0  0  0  0  0 12  0  0
    1.6888    0.6477    2.3006 H   0  0  0  0  0  0  0  0  0 13  0  0
  1  7  1  0
  1  6  1  0
  1  2  1  0
  2  8  1  0
  2  3  1  0
  3  4  1  0
  3  9  1  0
  3 10  1  0
  4  5  1  0
  4 11  1  0
  5 12  1  0
  5 13  1  0
M  END
>  <rmg_smiles>  (1) 
[CH2][CH]C[CH][CH2]

>  <rmg_adjacency_list>  (1) 
1  C u0 p0 c0 {2,S} {3,S} {6,S} {7,S}
2  C u0 p0 c0 {1,S} {4,S} {8,S}
3  C u0 p0 c0 {1,S} {5,S} {9,S}
4  C u0 p0 c0 {2,S} {10,S} {11,S}
5  C u0 p0 c0 {3,S} {12,S} {13,S}
6  H u0 p0 c0 {1,S}
7  H u0 p0 c0 {1,S}
8  H u0 p0 c0 {2,S}
9  H u0 p0 c0 {3,S}
10 H u0 p0 c0 {4,S}
11 H u0 p0 c0 {4,S}
12 H u0 p0 c0 {5,S}
13 H u0 p0 c0 {5,S}


>  <multiplicity>  (1) 
1

>  <reaction>  (1) 
rxn_1146

>  <type>  (1) 
r1h

>  <role_mapnums>  (1) 
{"r1h_a": 3, "r1h_h": 9}

>  <role_mapidx>  (1) 
{"r1h_a": 2, "r1h_h": 8}

>  <ordered_mapped_smiles>  (1) 
[CH:1]([CH:2]([C:3]([CH:4]([CH:5]([H:12])[H:13])[H:11])([H:9])[H:10])[H:8])([H:6])[H:7]

>  <mol_properties>  (1) 
{"2": {"label": "donator", "atom_type": "Cs"}, "8": {"label": "d_hydrogen", "atom_type": "H0"}}

>  <level_of_theory>  (1) 
wb97xd/def2tzvp

>  <lot_method>  (1) 
wb97xd

>  <lot_basis>  (1) 
def2tzvp

>  <spin_multiplicity>  (1) 
1.0

>  <optical_isomers>  (1) 
2.0

>  <modes>  (1) 
IdealGasTranslation(mass=(68.0626, 'amu')),         NonlinearRotor(             inertia = ([45.0412, 159.938, 187.579

>  <frequency_value>  (1) 
unknown

>  <frequency_units>  (1) 
unknown

>  <frequency_list>  (1) 
unknown

>  <arkane_path>  (1) 
/home/calvin/Dropbox/PersonalFolders/Calvin/HAb_Converged/rxn_1146/output/Species/rxn_1146_C=CCC=C/arkane/output.py

>  <path_exists>  (1) 
True

>  <E0_value>  (1) 
-512473.3799039456

>  <E0_units>  (1) 
kJ/mol

>  <thermo_class>  (1) 
NASA

>  <Cp0_value>  (1) 
33.257888

>  <Cp0_units>  (1) 
J/(mol*K)

>  <CpInf_value>  (1) 
307.635464

>  <CpInf_units>  (1) 
J/(mol*K)

>  <Tmin_value>  (1) 
10.0

>  <Tmin_units>  (1) 
K

>  <Tmax_value>  (1) 
3000.0

>  <Tmax_units>  (1) 
K

>  <polynomials>  (1) 
[{"name": "polynomial1", "class": "NASAPolynomial", "Tmin_value": 10.0, "Tmin_units": "K", "Tmax_value": 819.4804820196184, "Tmax_units": "K", "coeffs": [3.8786961323103277, 0.01518848526354921, 5.629175519915376e-05, -8.158967068239976e-08, 3.30459758185792e-11, -61636312.679365546, 10.298540277465028]}, {"name": "polynomial2", "class": "NASAPolynomial", "Tmin_value": 819.4804820196184, "Tmin_units": "K", "Tmax_value": 3000.0, "Tmax_units": "K", "coeffs": [0.9713570478533602, 0.04440309225960069, -2.468286623666531e-05, 6.656489578832237e-09, -7.002700885295111e-13, -61636340.62723716, 20.6681030649648]}]

>  <H298_value>  (1) 
-122479.74618776135

>  <H298_units>  (1) 
kcal/mol

>  <S298_value>  (1) 
77.03784100856907

>  <S298_units>  (1) 
cal/(mol*K)

>  <Cp_T_value_list>  (1) 
[22.98452912921813, 28.98342495343222, 34.60231709225981, 39.57761952390819, 47.33114131422195, 52.95468648559353, 61.52407504834919, 65.76395981018108, 67.86608281001313]

>  <Cp_T_units>  (1) 
cal/(mol*K)

>  <T_list>  (1) 
[300.0, 400.0, 500.0, 600.0, 800.0, 1000.0, 1500.0, 2000.0, 2400.0]

>  <T_units>  (1) 
K

>  <yaml_path>  (1) 
/home/calvin/Dropbox/PersonalFolders/Calvin/HAb_Converged/rxn_1146/output/Species/rxn_1146_C=CCC=C/rxn_1146_C=CCC=C.yml

>  <frequencies_cm1>  (1) 
[87.95234797856001, 151.90458226372, 257.19606817528, 416.50326061396, 498.01437636235994, 571.25077480016, 682.49593698416, 887.8393990081199, 919.5923391278, 958.3564712591999, 961.16506825508, 963.55477914644, 1034.0581174268798, 1039.2220903875198, 1080.8909573092799, 1137.2757737718, 1245.9046145488799, 1315.20623039832, 1324.3393208739199, 1346.8492987528798, 1434.93211945252, 1443.44718124932, 1463.70478794332, 1713.3403052812798, 1720.18668964532, 2995.26912481888, 3030.3800207600398, 3111.8568015818396, 3116.1074654949202, 3123.6062134643594, 3128.7427184837197, 3202.1645255251597, 3207.6031778986]

>  <ZPE_kJmol>  (1) 
296.4999886896896

>  <E_elec_kJmol>  (1) 
-512769.8798926352

>  <E0_minus_Eelec_plus_ZPE_kJmol>  (1) 
0.0

>  <rxn>  (1) 
rxn_1146

>  <species_type>  (1) 
r1

>  <species_folder>  (1) 
rxn_1146_C=CCC=C

>  <frequencies_cm1_list>  (1) 
[87.95234797856001, 151.90458226372, 257.19606817528, 416.50326061396, 498.01437636235994, 571.25077480016, 682.49593698416, 887.8393990081199, 919.5923391278, 958.3564712591999, 961.16506825508, 963.55477914644, 1034.0581174268798, 1039.2220903875198, 1080.8909573092799, 1137.2757737718, 1245.9046145488799, 1315.20623039832, 1324.3393208739199, 1346.8492987528798, 1434.93211945252, 1443.44718124932, 1463.70478794332, 1713.3403052812798, 1720.18668964532, 2995.26912481888, 3030.3800207600398, 3111.8568015818396, 3116.1074654949202, 3123.6062134643594, 3128.7427184837197, 3202.1645255251597, 3207.6031778986]

>  <E0_kJmol>  (1) 
-512473

>  <H298_kJmol>  (1) 
-512455

$$$$

     RDKit          3D

  8  7  0  0  0  0  0  0  0  0999 V2000
   -1.3791   -0.2127   -1.3021 C   0  0  0  0  0  2  0  0  0  1  0  0
   -0.5336   -0.1526   -0.4441 C   0  0  0  0  0  2  0  0  0  2  0  0
    0.3925   -0.2069    0.5863 C   0  0  0  0  0  0  0  0  0  3  0  0
    1.3729    0.5609    1.0143 C   0  0  0  0  0  0  0  0  0  4  0  0
   -2.1153   -0.2434   -2.0688 H   0  0  0  0  0  0  0  0  0  5  0  0
    1.9706    0.2642    1.8702 H   0  0  0  0  0  0  0  0  0  6  0  0
    1.6173    1.5032    0.5322 H   0  0  0  0  0  0  0  0  0  7  0  0
    0.3079   -1.1029    1.2013 H   0  0  0  0  0  0  0  0  0  8  0  0
  1  5  1  0
  1  2  1  0
  2  3  1  0
  3  4  1  0
  3  8  1  0
  4  7  1  0
  4  6  1  0
M  RAD  2   1   3   2   3
M  END
>  <rmg_smiles>  (2) 
[CH][C][CH][CH2]

>  <rmg_adjacency_list>  (2) 
1 C u0 p0 c0 {2,S} {3,S} {5,S}
2 C u0 p0 c0 {1,S} {6,S} {7,S}
3 C u0 p1 c0 {1,S} {4,S}
4 C u0 p1 c0 {3,S} {8,S}
5 H u0 p0 c0 {1,S}
6 H u0 p0 c0 {2,S}
7 H u0 p0 c0 {2,S}
8 H u0 p0 c0 {4,S}


>  <multiplicity>  (2) 
1

>  <reaction>  (2) 
rxn_1146

>  <type>  (2) 
r2h

>  <role_mapnums>  (2) 
{"r2h_a": 3, "r2h_h": 8}

>  <role_mapidx>  (2) 
{"r2h_a": 2, "r2h_h": 7}

>  <ordered_mapped_smiles>  (2) 
[C:1]([C:2][CH:3]([CH:4]([H:6])[H:7])[H:8])[H:5]

>  <mol_properties>  (2) 
{"2": {"label": "acceptor", "atom_type": "Cs"}, "7": {"label": "a_hydrogen", "atom_type": "H0"}}

>  <level_of_theory>  (2) 
wb97xd/def2tzvp

>  <lot_method>  (2) 
wb97xd

>  <lot_basis>  (2) 
def2tzvp

>  <spin_multiplicity>  (2) 
1.0

>  <optical_isomers>  (2) 
1.0

>  <modes>  (2) 
IdealGasTranslation(mass=(52.0313, 'amu')),         NonlinearRotor(             inertia = ([9.86559, 105.845, 115.711

>  <frequency_value>  (2) 
unknown

>  <frequency_units>  (2) 
unknown

>  <frequency_list>  (2) 
unknown

>  <arkane_path>  (2) 
/home/calvin/Dropbox/PersonalFolders/Calvin/HAb_Converged/rxn_1146/output/Species/rxn_1146_CtCC=C/arkane/output.py

>  <path_exists>  (2) 
True

>  <E0_value>  (2) 
-406091.886125891

>  <E0_units>  (2) 
kJ/mol

>  <thermo_class>  (2) 
NASA

>  <Cp0_value>  (2) 
33.257888

>  <Cp0_units>  (2) 
J/(mol*K)

>  <CpInf_value>  (2) 
182.918384

>  <CpInf_units>  (2) 
J/(mol*K)

>  <Tmin_value>  (2) 
10.0

>  <Tmin_units>  (2) 
K

>  <Tmax_value>  (2) 
3000.0

>  <Tmax_units>  (2) 
K

>  <polynomials>  (2) 
[{"name": "polynomial1", "class": "NASAPolynomial", "Tmin_value": 10.0, "Tmin_units": "K", "Tmax_value": 539.6924259091454, "Tmax_units": "K", "coeffs": [3.952165135673625, 0.002856988610718535, 7.748969027068091e-05, -1.4636771659515447e-07, 8.592251635550374e-11, -48841570.194759525, 7.59056634578395]}, {"name": "polynomial2", "class": "NASAPolynomial", "Tmin_value": 539.6924259091454, "Tmin_units": "K", "Tmax_value": 3000.0, "Tmax_units": "K", "coeffs": [2.1702296891625794, 0.026363759472425752, -1.64707651230591e-05, 5.0606479604362095e-09, -6.036458079288838e-13, -48841527.85434033, 13.698684547881204]}]

>  <H298_value>  (2) 
-97054.8281313212

>  <H298_units>  (2) 
kcal/mol

>  <S298_value>  (2) 
66.12779656879917

>  <S298_units>  (2) 
cal/(mol*K)

>  <Cp_T_value_list>  (2) 
[16.94566075459627, 20.518689246869094, 23.50323718540477, 25.98049414422314, 29.93477402200161, 32.8291008840918, 37.12176727992767, 39.42923508788264, 40.74274810859482]

>  <Cp_T_units>  (2) 
cal/(mol*K)

>  <T_list>  (2) 
[300.0, 400.0, 500.0, 600.0, 800.0, 1000.0, 1500.0, 2000.0, 2400.0]

>  <T_units>  (2) 
K

>  <yaml_path>  (2) 
/home/calvin/Dropbox/PersonalFolders/Calvin/HAb_Converged/rxn_1146/output/Species/rxn_1146_CtCC=C/rxn_1146_CtCC=C.yml

>  <frequencies_cm1>  (2) 
[225.237118496, 321.82126702179994, 559.30222034336, 675.23753350092, 692.86508481736, 707.3338228865999, 885.99904694236, 971.2114677782399, 1012.2485720505599, 1105.4198288723198, 1315.886061945, 1434.5613022452399, 1683.44831818332, 2214.2525494486795, 3131.88779776028, 3144.7221933233595, 3226.7002640735195, 3436.58967037932]

>  <ZPE_kJmol>  (2) 
159.96902072108773

>  <E_elec_kJmol>  (2) 
-406251.8551466121

>  <E0_minus_Eelec_plus_ZPE_kJmol>  (2) 
0.0

>  <rxn>  (2) 
rxn_1146

>  <species_type>  (2) 
p0

>  <species_folder>  (2) 
rxn_1146_CtCC=C

>  <frequencies_cm1_list>  (2) 
[225.237118496, 321.82126702179994, 559.30222034336, 675.23753350092, 692.86508481736, 707.3338228865999, 885.99904694236, 971.2114677782399, 1012.2485720505599, 1105.4198288723198, 1315.886061945, 1434.5613022452399, 1683.44831818332, 2214.2525494486795, 3131.88779776028, 3144.7221933233595, 3226.7002640735195, 3436.58967037932]

>  <E0_kJmol>  (2) 
-406092

>  <H298_kJmol>  (2) 
-406077

$$$$

     RDKit          3D

 20 18  0  0  0  0  0  0  0  0999 V2000
   -2.1840    1.3881   -2.4821 C   0  0  0  0  0  0  0  0  0  1  0  0
   -1.3384    1.4482   -1.6241 C   0  0  0  0  0  0  0  0  0  2  0  0
   -0.4124    1.3939   -0.5937 C   0  0  0  0  0  3  0  0  0  3  0  0
    0.5681    2.1617   -0.1657 C   0  0  0  0  0  0  0  0  0  4  0  0
   -2.9202    1.3574   -3.2488 H   0  0  0  0  0  0  0  0  0  5  0  0
    1.1658    1.8650    0.6902 H   0  0  0  0  0  0  0  0  0  6  0  0
    0.8125    3.1039   -0.6479 H   0  0  0  0  0  0  0  0  0  7  0  0
    0.8142   -1.8474   -0.8973 C   0  0  0  0  0  0  0  0  0  8  0  0
   -0.0865   -1.9424    0.0700 C   0  0  0  0  0  0  0  0  0  9  0  0
   -0.5156   -0.8195    0.9452 C   0  0  0  0  0  0  0  0  0 10  0  0
    0.3234   -0.4691    2.1079 C   0  0  0  0  0  0  0  0  0 11  0  0
    1.5746   -0.8681    2.3281 C   0  0  0  0  0  0  0  0  0 12  0  0
    1.0902   -2.7061   -1.4959 H   0  0  0  0  0  0  0  0  0 13  0  0
    1.2957   -0.9038   -1.1295 H   0  0  0  0  0  0  0  0  0 14  0  0
   -0.5614   -2.9023    0.2567 H   0  0  0  0  0  0  0  0  0 15  0  0
   -0.5241    0.2097    0.2191 H   0  0  0  0  0  0  0  0  0 16  0  0
   -1.5696   -0.8861    1.2192 H   0  0  0  0  0  0  0  0  0 17  0  0
   -0.1424    0.2043    2.8220 H   0  0  0  0  0  0  0  0  0 18  0  0
    2.0836   -1.5415    1.6493 H   0  0  0  0  0  0  0  0  0 19  0  0
    2.1170   -0.5349    3.2034 H   0  0  0  0  0  0  0  0  0 20  0  0
  1  5  1  0
  1  2  1  0
  2  3  1  0
  3  4  1  0
  4  7  1  0
  4  6  1  0
  8  9  1  0
  8 14  1  0
  8 13  1  0
  9 10  1  0
  9 15  1  0
 10 16  1  0
 10 17  1  0
 10 11  1  0
 11 18  1  0
 11 12  1  0
 12 19  1  0
 12 20  1  0
M  RAD  1   3   2
M  END
>  <rmg_smiles>  (3) 
[CH2][CH]C[CH][CH2].[CH]C[C][CH2]

>  <rmg_adjacency_list>  (3) 
multiplicity 2
1  C u0 p0 c0 {2,S} {3,S} {10,S} {11,S}
2  C u0 p0 c0 {1,S} {4,S} {12,S}
3  C u0 p0 c0 {1,S} {5,S} {13,S}
4  C u0 p0 c0 {2,S} {14,S} {15,S}
5  C u0 p0 c0 {3,S} {16,S} {17,S}
6  C u0 p0 c0 {7,S} {18,S} {19,S}
7  C u1 p1 c0 {6,S} {8,S}
8  C u0 p1 c0 {7,S} {9,S}
9  C u0 p1 c0 {8,S} {20,S}
10 H u0 p0 c0 {1,S}
11 H u0 p0 c0 {1,S}
12 H u0 p0 c0 {2,S}
13 H u0 p0 c0 {3,S}
14 H u0 p0 c0 {4,S}
15 H u0 p0 c0 {4,S}
16 H u0 p0 c0 {5,S}
17 H u0 p0 c0 {5,S}
18 H u0 p0 c0 {6,S}
19 H u0 p0 c0 {6,S}
20 H u0 p0 c0 {9,S}


>  <multiplicity>  (3) 
2

>  <reaction>  (3) 
rxn_1146

>  <type>  (3) 
ts

>  <role_mapnums>  (3) 
{"*2": 16, "*1": 10, "*3": 3, "*0": 9, "*4": 2}

>  <role_mapidx>  (3) 
{"*2": 15, "*1": 9, "*3": 2, "*0": 8, "*4": 1}

>  <ordered_mapped_smiles>  (3) 
[CH2:1]([CH2:2][CH:3][CH:4]([H:6])[H:7])[H:5].[CH:8]([CH:9]([C:10]([CH:11]([CH:12]([H:19])[H:20])[H:18])([H:16])[H:17])[H:15])([H:13])[H:14]

>  <mol_properties>  (3) 
{"1": {"label": "*4", "atom_type": "C2s"}, "2": {"label": "*3", "atom_type": "C2s"}, "8": {"label": "*0", "atom_type": "Cs"}, "9": {"label": "*1", "atom_type": "Cs"}, "15": {"label": "*2", "atom_type": "H0"}}

>  <level_of_theory>  (3) 
wb97xd/def2tzvp

>  <lot_method>  (3) 
wb97xd

>  <lot_basis>  (3) 
def2tzvp

>  <spin_multiplicity>  (3) 
2.0

>  <optical_isomers>  (3) 
2.0

>  <modes>  (3) 
IdealGasTranslation(mass=(119.086, 'amu')),         NonlinearRotor(             inertia = ([228.473, 536.729, 648.437

>  <frequency_value>  (3) 
-1521.57

>  <frequency_units>  (3) 
cm^-1

>  <frequency_list>  (3) 
unknown

>  <arkane_path>  (3) 
/home/calvin/Dropbox/PersonalFolders/Calvin/HAb_Converged/rxn_1146/output/rxns/TS0/arkane/output.py

>  <path_exists>  (3) 
True

>  <E0_value>  (3) 
-916807.0

>  <E0_units>  (3) 
kJ/mol

>  <thermo_class>  (3) 
unknown

>  <Cp0_value>  (3) 
unknown

>  <Cp0_units>  (3) 
unknown

>  <CpInf_value>  (3) 
unknown

>  <CpInf_units>  (3) 
unknown

>  <Tmin_value>  (3) 
unknown

>  <Tmin_units>  (3) 
unknown

>  <Tmax_value>  (3) 
unknown

>  <Tmax_units>  (3) 
unknown

>  <polynomials>  (3) 
unknown

>  <H298_value>  (3) 
unknown

>  <H298_units>  (3) 
unknown

>  <S298_value>  (3) 
unknown

>  <S298_units>  (3) 
unknown

>  <Cp_T_value_list>  (3) 
unknown

>  <Cp_T_units>  (3) 
unknown

>  <T_list>  (3) 
unknown

>  <T_units>  (3) 
unknown

>  <yaml_path>  (3) 
unknown

>  <frequencies_cm1>  (3) 
unknown

>  <ZPE_kJmol>  (3) 
unknown

>  <E_elec_kJmol>  (3) 
unknown

>  <E0_minus_Eelec_plus_ZPE_kJmol>  (3) 
unknown

>  <rxn>  (3) 
unknown

>  <species_type>  (3) 
unknown

>  <species_folder>  (3) 
unknown

>  <frequencies_cm1_list>  (3) 
[]

>  <ts_imag_freq_cm1>  (3) 
-1540.0511

>  <ts_freq_out_path>  (3) 
/home/calvin/Dropbox/PersonalFolders/Calvin/HAb_Converged/rxn_1146/output/rxns/TS0/geometry/freq.out

>  <E0_kJmol>  (3) 
-916807

>  <H298_kJmol>  (3) 
unknown

$$$$

     RDKit          3D

 12 11  0  0  0  0  0  0  0  0999 V2000
   -2.3791    0.4612   -0.5870 C   0  0  0  0  0  0  0  0  0  1  0  0
   -1.3422   -0.3138   -0.1893 C   0  0  0  0  0  0  0  0  0  2  0  0
   -1.4723   -1.6058    0.3589 C   0  0  0  0  0  3  0  0  0  3  0  0
   -0.3798   -2.3973    0.7671 C   0  0  0  0  0  0  0  0  0  4  0  0
   -0.4849   -3.6397    1.2956 C   0  0  0  0  0  0  0  0  0  5  0  0
   -2.2205    1.4472   -1.0017 H   0  0  0  0  0  0  0  0  0  6  0  0
   -3.4026    0.1153   -0.5011 H   0  0  0  0  0  0  0  0  0  7  0  0
   -0.3330    0.0765   -0.2952 H   0  0  0  0  0  0  0  0  0  8  0  0
   -2.4723   -2.0151    0.4735 H   0  0  0  0  0  0  0  0  0  9  0  0
    0.6117   -1.9687    0.6436 H   0  0  0  0  0  0  0  0  0 10  0  0
    0.3893   -4.2030    1.5920 H   0  0  0  0  0  0  0  0  0 11  0  0
   -1.4516   -4.1084    1.4378 H   0  0  0  0  0  0  0  0  0 12  0  0
  1  7  1  0
  1  6  1  0
  1  2  1  0
  2  8  1  0
  2  3  1  0
  3  4  1  0
  3  9  1  0
  4  5  1  0
  4 10  1  0
  5 11  1  0
  5 12  1  0
M  RAD  1   3   2
M  END
>  <rmg_smiles>  (4) 
[CH2][CH][CH][CH][CH2]

>  <rmg_adjacency_list>  (4) 
multiplicity 2
1  C u1 p0 c0 {2,S} {3,S} {7,S}
2  C u0 p0 c0 {1,S} {4,S} {6,S}
3  C u0 p0 c0 {1,S} {5,S} {8,S}
4  C u0 p0 c0 {2,S} {9,S} {10,S}
5  C u0 p0 c0 {3,S} {11,S} {12,S}
6  H u0 p0 c0 {2,S}
7  H u0 p0 c0 {1,S}
8  H u0 p0 c0 {3,S}
9  H u0 p0 c0 {4,S}
10 H u0 p0 c0 {4,S}
11 H u0 p0 c0 {5,S}
12 H u0 p0 c0 {5,S}


>  <multiplicity>  (4) 
2

>  <reaction>  (4) 
rxn_1146

>  <type>  (4) 
r1

>  <role_mapnums>  (4) 
{}

>  <role_mapidx>  (4) 
{}

>  <ordered_mapped_smiles>  (4) 
[CH:1]([CH:2]([C:3]([CH:4]([CH:5]([H:11])[H:12])[H:10])[H:9])[H:8])([H:6])[H:7]

>  <level_of_theory>  (4) 
wb97xd/def2tzvp

>  <lot_method>  (4) 
wb97xd

>  <lot_basis>  (4) 
def2tzvp

>  <spin_multiplicity>  (4) 
2.0

>  <optical_isomers>  (4) 
1.0

>  <modes>  (4) 
IdealGasTranslation(mass=(67.0548, 'amu')),         NonlinearRotor(             inertia = ([15.7789, 219.5, 235.279

>  <frequency_value>  (4) 
unknown

>  <frequency_units>  (4) 
unknown

>  <frequency_list>  (4) 
unknown

>  <arkane_path>  (4) 
/home/calvin/Dropbox/PersonalFolders/Calvin/HAb_Converged/rxn_1146/output/Species/rxn_1146_C=C[CH]C=C/arkane/output.py

>  <path_exists>  (4) 
True

>  <E0_value>  (4) 
-510855.5751100087

>  <E0_units>  (4) 
kJ/mol

>  <thermo_class>  (4) 
NASA

>  <Cp0_value>  (4) 
33.257888

>  <Cp0_units>  (4) 
J/(mol*K)

>  <CpInf_value>  (4) 
282.692048

>  <CpInf_units>  (4) 
J/(mol*K)

>  <Tmin_value>  (4) 
10.0

>  <Tmin_units>  (4) 
K

>  <Tmax_value>  (4) 
3000.0

>  <Tmax_units>  (4) 
K

>  <polynomials>  (4) 
[{"name": "polynomial1", "class": "NASAPolynomial", "Tmin_value": 10.0, "Tmin_units": "K", "Tmax_value": 495.5840275842744, "Tmax_units": "K", "coeffs": [3.932082032376979, 0.0042390896901888155, 0.00013491958123094253, -2.6336005693654997e-07, 1.626909165392724e-10, -61441731.381948404, 9.35015460292558]}, {"name": "polynomial2", "class": "NASAPolynomial", "Tmin_value": 495.5840275842744, "Tmin_units": "K", "Tmax_value": 3000.0, "Tmax_units": "K", "coeffs": [0.4678177086389979, 0.045132350968267176, -2.7995649240380386e-05, 8.450588130835857e-09, -9.873863008116942e-13, -61441546.824784815, 22.029002821441143]}]

>  <H298_value>  (4) 
-122093.22023375862

>  <H298_units>  (4) 
kcal/mol

>  <S298_value>  (4) 
73.53288382015234

>  <S298_units>  (4) 
cal/(mol*K)

>  <Cp_T_value_list>  (4) 
[22.959480712992537, 28.863567781662294, 33.84151615247921, 38.087110466730245, 44.868640102140795, 49.81473866504161, 57.02929961159329, 60.721969960278656, 62.78050937960764]

>  <Cp_T_units>  (4) 
cal/(mol*K)

>  <T_list>  (4) 
[300.0, 400.0, 500.0, 600.0, 800.0, 1000.0, 1500.0, 2000.0, 2400.0]

>  <T_units>  (4) 
K

>  <yaml_path>  (4) 
/home/calvin/Dropbox/PersonalFolders/Calvin/HAb_Converged/rxn_1146/output/Species/rxn_1146_C=C[CH]C=C/rxn_1146_C=CCHC=C.yml

>  <frequencies_cm1>  (4) 
[152.447074104, 206.60012033752, 248.40632696568, 457.56783282756, 491.88902545691997, 588.69978449828, 627.8209998663199, 832.6563049765999, 870.4315912219199, 882.064264354, 920.7322586909199, 984.0870652532399, 1007.05026416332, 1023.1327437827599, 1134.85859493916, 1248.1157838219199, 1283.31595057224, 1294.9760916455998, 1300.263670342, 1433.84713577196, 1468.49107671136, 1516.66297873116, 1589.96804702216, 3115.7572492435997, 3116.0319286563995, 3124.4645866293595, 3126.14013104744, 3128.6191127479597, 3219.8676136801196, 3219.9500175039598]

>  <ZPE_kJmol>  (4) 
260.8752032786634

>  <E_elec_kJmol>  (4) 
-511116.4503132874

>  <E0_minus_Eelec_plus_ZPE_kJmol>  (4) 
0.0

>  <rxn>  (4) 
rxn_1146

>  <species_type>  (4) 
p1

>  <species_folder>  (4) 
rxn_1146_C=C[CH]C=C

>  <frequencies_cm1_list>  (4) 
[152.447074104, 206.60012033752, 248.40632696568, 457.56783282756, 491.88902545691997, 588.69978449828, 627.8209998663199, 832.6563049765999, 870.4315912219199, 882.064264354, 920.7322586909199, 984.0870652532399, 1007.05026416332, 1023.1327437827599, 1134.85859493916, 1248.1157838219199, 1283.31595057224, 1294.9760916455998, 1300.263670342, 1433.84713577196, 1468.49107671136, 1516.66297873116, 1589.96804702216, 3115.7572492435997, 3116.0319286563995, 3124.4645866293595, 3126.14013104744, 3128.6191127479597, 3219.8676136801196, 3219.9500175039598]

>  <E0_kJmol>  (4) 
-510856

>  <H298_kJmol>  (4) 
-510838

$$$$

     RDKit          3D

  7  6  0  0  0  0  0  0  0  0999 V2000
    1.3002    0.7433    2.1278 C   0  0  0  0  0  0  0  0  0  1  0  0
    0.5758    0.3292    1.2319 C   0  0  0  0  0  0  0  0  0  2  0  0
   -0.2057   -0.1176    0.2652 C   0  0  0  0  0  3  0  0  0  3  0  0
   -0.9747   -0.5572   -0.6858 C   0  0  0  0  0  0  0  0  0  4  0  0
    1.9294    1.1030    2.9059 H   0  0  0  0  0  0  0  0  0  5  0  0
   -1.9977   -0.8727   -0.4932 H   0  0  0  0  0  0  0  0  0  6  0  0
   -0.6274   -0.6280   -1.7142 H   0  0  0  0  0  0  0  0  0  7  0  0
  1  5  1  0
  1  2  1  0
  2  3  1  0
  3  4  1  0
  4  7  1  0
  4  6  1  0
M  RAD  1   3   2
M  END
>  <rmg_smiles>  (5) 
[CH]C[C][CH2]

>  <rmg_adjacency_list>  (5) 
multiplicity 2
1 C u0 p0 c0 {2,S} {5,S} {6,S}
2 C u1 p1 c0 {1,S} {3,S}
3 C u0 p1 c0 {2,S} {4,S}
4 C u0 p1 c0 {3,S} {7,S}
5 H u0 p0 c0 {1,S}
6 H u0 p0 c0 {1,S}
7 H u0 p0 c0 {4,S}


>  <multiplicity>  (5) 
2

>  <reaction>  (5) 
rxn_1146

>  <type>  (5) 
r2

>  <role_mapnums>  (5) 
{}

>  <role_mapidx>  (5) 
{}

>  <ordered_mapped_smiles>  (5) 
[CH2:1]([CH2:2][CH:3][CH:4]([H:6])[H:7])[H:5]

>  <level_of_theory>  (5) 
wb97xd/def2tzvp

>  <lot_method>  (5) 
wb97xd

>  <lot_basis>  (5) 
def2tzvp

>  <spin_multiplicity>  (5) 
2.0

>  <optical_isomers>  (5) 
1.0

>  <modes>  (5) 
IdealGasTranslation(mass=(51.0235, 'amu')),         NonlinearRotor(             inertia = ([1.72772, 120.695, 122.423

>  <frequency_value>  (5) 
unknown

>  <frequency_units>  (5) 
unknown

>  <frequency_list>  (5) 
unknown

>  <arkane_path>  (5) 
/home/calvin/Dropbox/PersonalFolders/Calvin/HAb_Converged/rxn_1146/output/Species/rxn_1146_CtC[C]=C/arkane/output.py

>  <path_exists>  (5) 
True

>  <E0_value>  (5) 
-404373.4126181607

>  <E0_units>  (5) 
kJ/mol

>  <thermo_class>  (5) 
NASA

>  <Cp0_value>  (5) 
33.257888

>  <Cp0_units>  (5) 
J/(mol*K)

>  <CpInf_value>  (5) 
157.97496800000002

>  <CpInf_units>  (5) 
J/(mol*K)

>  <Tmin_value>  (5) 
10.0

>  <Tmin_units>  (5) 
K

>  <Tmax_value>  (5) 
3000.0

>  <Tmax_units>  (5) 
K

>  <polynomials>  (5) 
[{"name": "polynomial1", "class": "NASAPolynomial", "Tmin_value": 10.0, "Tmin_units": "K", "Tmax_value": 324.93742347538466, "Tmax_units": "K", "coeffs": [3.860957436761623, 0.012109023849391215, 9.28883022719331e-05, -3.6034349416108743e-07, 3.942299905681824e-10, -48634890.18092805, 7.5234941199948695]}, {"name": "polynomial2", "class": "NASAPolynomial", "Tmin_value": 324.93742347538466, "Tmin_units": "K", "Tmax_value": 3000.0, "Tmax_units": "K", "coeffs": [4.571611958305448, 0.019088216996661012, -1.1931516477598526e-05, 3.6686933602815096e-09, -4.3673410107483224e-13, -48635019.39289907, 3.6162549190596662]}]

>  <H298_value>  (5) 
-96643.63034501827

>  <H298_units>  (5) 
kcal/mol

>  <S298_value>  (5) 
69.25657744939353

>  <S298_units>  (5) 
cal/(mol*K)

>  <Cp_T_value_list>  (5) 
[18.515996043092542, 20.908337761963022, 22.980318538610845, 24.770595110400368, 27.633099447862612, 29.729149250989714, 32.84633571130225, 34.54516322305355, 35.53925181642229]

>  <Cp_T_units>  (5) 
cal/(mol*K)

>  <T_list>  (5) 
[300.0, 400.0, 500.0, 600.0, 800.0, 1000.0, 1500.0, 2000.0, 2400.0]

>  <T_units>  (5) 
K

>  <yaml_path>  (5) 
/home/calvin/Dropbox/PersonalFolders/Calvin/HAb_Converged/rxn_1146/output/Species/rxn_1146_CtC[C]=C/rxn_1146_CtCC=C.yml

>  <frequencies_cm1>  (5) 
[60.92389375904, 224.90750320063995, 350.55273360068, 378.96831885484, 541.79827476268, 666.4752602325999, 890.0643022518001, 901.2506213380799, 969.4947214482399, 1424.29515919184, 1805.7630607031601, 2002.6326628422398, 3064.4128000059595, 3135.0191430662, 3426.46773401764]

>  <ZPE_kJmol>  (5) 
118.68768783670004

>  <E_elec_kJmol>  (5) 
-404492.1003059974

>  <E0_minus_Eelec_plus_ZPE_kJmol>  (5) 
0.0

>  <rxn>  (5) 
rxn_1146

>  <species_type>  (5) 
r0

>  <species_folder>  (5) 
rxn_1146_CtC[C]=C

>  <frequencies_cm1_list>  (5) 
[60.92389375904, 224.90750320063995, 350.55273360068, 378.96831885484, 541.79827476268, 666.4752602325999, 890.0643022518001, 901.2506213380799, 969.4947214482399, 1424.29515919184, 1805.7630607031601, 2002.6326628422398, 3064.4128000059595, 3135.0191430662, 3426.46773401764]

>  <E0_kJmol>  (5) 
-404373

>  <H298_kJmol>  (5) 
-404357

$$$$
