
     RDKit          3D

 12 11  0  0  0  0  0  0  0  0999 V2000
   -0.5033   -1.4747   -0.4443 C   0  0  0  0  0  0  0  0  0  1  0  0
   -0.4357   -0.6349    0.5959 C   0  0  0  0  0  0  0  0  0  2  0  0
    0.2131    0.6667    0.6085 C   0  0  0  0  0  0  0  0  0  3  0  0
    0.6111    1.3078   -0.6955 C   0  0  0  0  0  0  0  0  0  4  0  0
   -0.1033   -1.2193   -1.4183 H   0  0  0  0  0  0  0  0  0  5  0  0
   -0.9792   -2.4419   -0.3495 H   0  0  0  0  0  0  0  0  0  6  0  0
   -0.8611   -0.9546    1.5428 H   0  0  0  0  0  0  0  0  0  7  0  0
    1.1597    0.4826    1.1155 H   0  0  0  0  0  0  0  0  0  8  0  0
   -0.2199    1.3575    1.3310 H   0  0  0  0  0  0  0  0  0  9  0  0
   -0.2637    1.5223   -1.3166 H   0  0  0  0  0  0  0  0  0 10  0  0
    1.2716    0.6586   -1.2741 H   0  0  0  0  0  0  0  0  0 11  0  0
    1.1376    2.2469   -0.5210 H   0  0  0  0  0  0  0  0  0 12  0  0
  1  5  1  0
  1  6  1  0
  1  2  1  0
  2  7  1  0
  2  3  1  0
  3  4  1  0
  3  9  1  0
  3  8  1  0
  4 12  1  0
  4 10  1  0
  4 11  1  0
M  END
>  <rmg_smiles>  (1) 
[CH2][CH]CC

>  <rmg_adjacency_list>  (1) 
1  C u0 p0 c0 {2,S} {3,S} {5,S} {6,S}
2  C u0 p0 c0 {1,S} {7,S} {8,S} {9,S}
3  C u0 p0 c0 {1,S} {4,S} {10,S}
4  C u0 p0 c0 {3,S} {11,S} {12,S}
5  H u0 p0 c0 {1,S}
6  H u0 p0 c0 {1,S}
7  H u0 p0 c0 {2,S}
8  H u0 p0 c0 {2,S}
9  H u0 p0 c0 {2,S}
10 H u0 p0 c0 {3,S}
11 H u0 p0 c0 {4,S}
12 H u0 p0 c0 {4,S}


>  <multiplicity>  (1) 
1

>  <reaction>  (1) 
rxn_1053

>  <type>  (1) 
r1h

>  <role_mapnums>  (1) 
{"r1h_a": 3, "r1h_h": 8}

>  <role_mapidx>  (1) 
{"r1h_a": 2, "r1h_h": 7}

>  <ordered_mapped_smiles>  (1) 
[CH:1]([CH:2]([C:3]([C:4]([H:10])([H:11])[H:12])([H:8])[H:9])[H:7])([H:5])[H:6]

>  <mol_properties>  (1) 
{"2": {"label": "donator", "atom_type": "Cs"}, "7": {"label": "d_hydrogen", "atom_type": "H0"}}

>  <level_of_theory>  (1) 
wb97xd/def2tzvp

>  <lot_method>  (1) 
wb97xd

>  <lot_basis>  (1) 
def2tzvp

>  <spin_multiplicity>  (1) 
1.0

>  <optical_isomers>  (1) 
1.0

>  <modes>  (1) 
IdealGasTranslation(mass=(56.0626, 'amu')),         NonlinearRotor(             inertia = ([32.5109, 90.3514, 116.676

>  <frequency_value>  (1) 
unknown

>  <frequency_units>  (1) 
unknown

>  <frequency_list>  (1) 
unknown

>  <arkane_path>  (1) 
/home/calvin/Dropbox/PersonalFolders/Calvin/HAb_Converged/rxn_1053/output/Species/rxn_1053_C=CCC/arkane/output.py

>  <path_exists>  (1) 
True

>  <E0_value>  (1) 
-412516.9632903335

>  <E0_units>  (1) 
kJ/mol

>  <thermo_class>  (1) 
NASA

>  <Cp0_value>  (1) 
33.257888

>  <Cp0_units>  (1) 
J/(mol*K)

>  <CpInf_value>  (1) 
282.692048

>  <CpInf_units>  (1) 
J/(mol*K)

>  <Tmin_value>  (1) 
10.0

>  <Tmin_units>  (1) 
K

>  <Tmax_value>  (1) 
3000.0

>  <Tmax_units>  (1) 
K

>  <polynomials>  (1) 
[{"name": "polynomial1", "class": "NASAPolynomial", "Tmin_value": 10.0, "Tmin_units": "K", "Tmax_value": 488.655875950425, "Tmax_units": "K", "coeffs": [3.9518334489867755, 0.002738214948316711, 0.00010027883330171994, -1.6337813639818567e-07, 8.627420085348335e-11, -49614327.71326204, 8.65572399544736]}, {"name": "polynomial2", "class": "NASAPolynomial", "Tmin_value": 488.655875950425, "Tmin_units": "K", "Tmax_value": 3000.0, "Tmax_units": "K", "coeffs": [-1.0177998638327943, 0.04340046679206265, -2.4485281954071822e-05, 6.761443222838627e-09, -7.324004262046576e-13, -49613841.81296031, 29.07476490076061]}]

>  <H298_value>  (1) 
-98590.13440490302

>  <H298_units>  (1) 
kcal/mol

>  <S298_value>  (1) 
69.88440789589453

>  <S298_units>  (1) 
cal/(mol*K)

>  <Cp_T_value_list>  (1) 
[20.042973263550383, 25.523981497089775, 30.524522062075274, 34.9218382998611, 42.11657803113529, 47.54675281077259, 55.846682187635814, 60.04373230790421, 62.15783038221664]

>  <Cp_T_units>  (1) 
cal/(mol*K)

>  <T_list>  (1) 
[300.0, 400.0, 500.0, 600.0, 800.0, 1000.0, 1500.0, 2000.0, 2400.0]

>  <T_units>  (1) 
K

>  <yaml_path>  (1) 
/home/calvin/Dropbox/PersonalFolders/Calvin/HAb_Converged/rxn_1053/output/Species/rxn_1053_C=CCC/rxn_1053_C=CCC.yml

>  <frequencies_cm1>  (1) 
[165.89949834588, 270.68969432907994, 288.28291071892, 546.5845635307201, 562.94858954828, 802.8192537611999, 842.75764038232, 950.1229558605198, 1001.7077495843599, 1030.7756984439197, 1035.6375240504801, 1103.34599930568, 1142.2200032022, 1284.9434260930798, 1326.2895447048, 1372.0442678919599, 1403.3508539658399, 1441.4282875652402, 1464.212944857, 1485.72034287924, 1496.3092342426798, 1714.90597793424, 3000.2545561612, 3017.2984137254402, 3025.2847176525997, 3087.5545405343596, 3095.4996425496, 3112.8387804825998, 3128.2208275993994, 3206.66926789508]

>  <ZPE_kJmol>  (1) 
283.55462469418285

>  <E_elec_kJmol>  (1) 
-412800.5179150276

>  <E0_minus_Eelec_plus_ZPE_kJmol>  (1) 
0.0

>  <rxn>  (1) 
rxn_1053

>  <species_type>  (1) 
r0

>  <species_folder>  (1) 
rxn_1053_C=CCC

>  <frequencies_cm1_list>  (1) 
[165.89949834588, 270.68969432907994, 288.28291071892, 546.5845635307201, 562.94858954828, 802.8192537611999, 842.75764038232, 950.1229558605198, 1001.7077495843599, 1030.7756984439197, 1035.6375240504801, 1103.34599930568, 1142.2200032022, 1284.9434260930798, 1326.2895447048, 1372.0442678919599, 1403.3508539658399, 1441.4282875652402, 1464.212944857, 1485.72034287924, 1496.3092342426798, 1714.90597793424, 3000.2545561612, 3017.2984137254402, 3025.2847176525997, 3087.5545405343596, 3095.4996425496, 3112.8387804825998, 3128.2208275993994, 3206.66926789508]

>  <E0_kJmol>  (1) 
-412517

>  <H298_kJmol>  (1) 
-412501

$$$$

     RDKit          3D

 21 21  0  0  0  0  0  0  0  0999 V2000
   -0.6134    1.0177   -1.8793 H   0  0  0  0  0  0  0  0  0  1  0  0
    1.0000   -0.0334   -2.5278 C   0  0  0  0  0  0  0  0  0  2  0  0
    0.3655    0.8136   -1.4454 C   0  0  0  0  0  0  0  0  0  3  0  0
    0.9748    2.1893   -1.3070 C   0  0  0  0  0  0  0  0  0  4  0  0
   -0.0108    0.1128   -0.1964 C   0  0  0  0  0  0  0  0  0  5  0  0
   -0.0164    0.7618    1.0432 C   0  0  0  0  0  0  0  0  0  6  0  0
   -0.4267    0.1116    2.1955 C   0  0  0  0  0  0  0  0  0  7  0  0
   -0.8516   -1.2067    2.1453 C   0  0  0  0  0  0  0  0  0  8  0  0
   -0.8567   -1.8675    0.9258 C   0  0  0  0  0  0  0  0  0  9  0  0
   -0.4427   -1.2196   -0.2247 C   0  0  0  0  0  0  0  0  0 10  0  0
    0.3332   -0.8252   -2.8722 H   0  0  0  0  0  0  0  0  0 11  0  0
    1.2489    0.5810   -3.3940 H   0  0  0  0  0  0  0  0  0 12  0  0
    1.9221   -0.5041   -2.1719 H   0  0  0  0  0  0  0  0  0 13  0  0
    1.9395    2.1517   -0.7893 H   0  0  0  0  0  0  0  0  0 14  0  0
    1.1451    2.6257   -2.2920 H   0  0  0  0  0  0  0  0  0 15  0  0
    0.3273    2.8713   -0.7533 H   0  0  0  0  0  0  0  0  0 16  0  0
    0.3157    1.7883    1.1180 H   0  0  0  0  0  0  0  0  0 17  0  0
   -0.4116    0.6407    3.1404 H   0  0  0  0  0  0  0  0  0 18  0  0
   -1.1728   -1.7143    3.0458 H   0  0  0  0  0  0  0  0  0 19  0  0
   -1.1857   -2.8978    0.8686 H   0  0  0  0  0  0  0  0  0 20  0  0
   -0.4661   -1.7573   -1.1627 H   0  0  0  0  0  0  0  0  0 21  0  0
  1  3  1  0
  2 12  1  0
  2 13  1  0
  2 11  1  0
  2  3  1  0
  3  4  1  0
  3  5  1  0
  4 14  1  0
  4 16  1  0
  4 15  1  0
  5 10  1  0
  5  6  1  0
  6  7  1  0
  6 17  1  0
  7 18  1  0
  7  8  1  0
  8 19  1  0
  8  9  1  0
  9 20  1  0
  9 10  1  0
 10 21  1  0
M  END
>  <rmg_smiles>  (2) 
CC(C)C1[CH][CH][CH][CH][CH]1

>  <rmg_adjacency_list>  (2) 
1  C u0 p0 c0 {2,S} {3,S} {4,S} {10,S}
2  C u0 p0 c0 {1,S} {11,S} {12,S} {13,S}
3  C u0 p0 c0 {1,S} {14,S} {15,S} {16,S}
4  C u0 p0 c0 {1,S} {5,S} {6,S}
5  C u0 p0 c0 {4,S} {7,S} {17,S}
6  C u0 p0 c0 {4,S} {9,S} {21,S}
7  C u0 p0 c0 {5,S} {8,S} {18,S}
8  C u0 p0 c0 {7,S} {9,S} {19,S}
9  C u0 p0 c0 {6,S} {8,S} {20,S}
10 H u0 p0 c0 {1,S}
11 H u0 p0 c0 {2,S}
12 H u0 p0 c0 {2,S}
13 H u0 p0 c0 {2,S}
14 H u0 p0 c0 {3,S}
15 H u0 p0 c0 {3,S}
16 H u0 p0 c0 {3,S}
17 H u0 p0 c0 {5,S}
18 H u0 p0 c0 {7,S}
19 H u0 p0 c0 {8,S}
20 H u0 p0 c0 {9,S}
21 H u0 p0 c0 {6,S}


>  <multiplicity>  (2) 
1

>  <reaction>  (2) 
rxn_1053

>  <type>  (2) 
r2h

>  <role_mapnums>  (2) 
{"r2h_a": 3, "r2h_h": 1}

>  <role_mapidx>  (2) 
{"r2h_a": 2, "r2h_h": 0}

>  <ordered_mapped_smiles>  (2) 
[H:1][C:3]([C:2]([H:11])([H:12])[H:13])([C:4]([H:14])([H:15])[H:16])[CH:5]1[CH:6]([H:17])[CH:7]([H:18])[CH:8]([H:19])[CH:9]([H:20])[CH:10]1[H:21]

>  <mol_properties>  (2) 
{"0": {"label": "a_hydrogen", "atom_type": "H0"}, "2": {"label": "acceptor", "atom_type": "Cs"}}

>  <level_of_theory>  (2) 
wb97xd/def2tzvp

>  <lot_method>  (2) 
wb97xd

>  <lot_basis>  (2) 
def2tzvp

>  <spin_multiplicity>  (2) 
1.0

>  <optical_isomers>  (2) 
1.0

>  <modes>  (2) 
IdealGasTranslation(mass=(120.094, 'amu')),         NonlinearRotor(             inertia = ([149.32, 463.91, 504.647

>  <frequency_value>  (2) 
unknown

>  <frequency_units>  (2) 
unknown

>  <frequency_list>  (2) 
unknown

>  <arkane_path>  (2) 
/home/calvin/Dropbox/PersonalFolders/Calvin/HAb_Converged/rxn_1053/output/Species/rxn_1053_CC[C]c1ccccc1/arkane/output.py

>  <path_exists>  (2) 
True

>  <E0_value>  (2) 
-918971.9705563578

>  <E0_units>  (2) 
kJ/mol

>  <thermo_class>  (2) 
NASA

>  <Cp0_value>  (2) 
33.257888

>  <Cp0_units>  (2) 
J/(mol*K)

>  <CpInf_value>  (2) 
507.182792

>  <CpInf_units>  (2) 
J/(mol*K)

>  <Tmin_value>  (2) 
10.0

>  <Tmin_units>  (2) 
K

>  <Tmax_value>  (2) 
3000.0

>  <Tmax_units>  (2) 
K

>  <polynomials>  (2) 
[{"name": "polynomial1", "class": "NASAPolynomial", "Tmin_value": 10.0, "Tmin_units": "K", "Tmax_value": 361.89922232211296, "Tmax_units": "K", "coeffs": [3.904348622062279, 0.0066165546790882615, 0.0002808737755672962, -5.999598061578041e-07, 4.2351735797772944e-10, -110526797.72652088, 13.495734278594782]}, {"name": "polynomial2", "class": "NASAPolynomial", "Tmin_value": 361.89922232211296, "Tmin_units": "K", "Tmax_value": 3000.0, "Tmax_units": "K", "coeffs": [-3.390813709941935, 0.08724915524894813, -5.3334839935951765e-05, 1.570183761902888e-08, -1.7850302751301086e-12, -110526269.70789742, 41.275892626906796]}]

>  <H298_value>  (2) 
-219633.7064411244

>  <H298_units>  (2) 
kcal/mol

>  <S298_value>  (2) 
90.86478001259816

>  <S298_units>  (2) 
cal/(mol*K)

>  <Cp_T_value_list>  (2) 
[36.563666942497676, 47.56278372816195, 57.13460978558492, 65.41564668608144, 78.65841331539274, 88.31207084387951, 102.21497799600469, 108.94333746029595, 112.55073339579498]

>  <Cp_T_units>  (2) 
cal/(mol*K)

>  <T_list>  (2) 
[300.0, 400.0, 500.0, 600.0, 800.0, 1000.0, 1500.0, 2000.0, 2400.0]

>  <T_units>  (2) 
K

>  <yaml_path>  (2) 
/home/calvin/Dropbox/PersonalFolders/Calvin/HAb_Converged/rxn_1053/output/Species/rxn_1053_CC[C]c1ccccc1/rxn_1053_CCCc1ccccc1.yml

>  <frequencies_cm1>  (2) 
[40.364139710959996, 128.71477283808, 218.52120685304, 233.34702815891998, 266.85791652052, 308.13536527904, 321.59465650623997, 414.80711523991994, 466.94813477468, 550.3133365594799, 568.586384496, 632.73089437012, 716.65918895116, 754.681686668, 783.96251207248, 862.0195342049199, 904.8283206898, 929.47393100328, 933.9718063878798, 965.95822400844, 981.62868450868, 994.4218781598398, 1016.0460149325199, 1049.9277205014, 1069.59476645788, 1107.56919527748, 1128.8637167548, 1168.97377800892, 1175.1197298703198, 1202.8829515190798, 1234.84190119836, 1303.2851438828, 1340.7170808621202, 1342.0355420435599, 1378.7945144615198, 1391.1344870815599, 1410.5131196546, 1472.453327241, 1477.58983226036, 1484.7452309638, 1489.7306623061197, 1494.12553291092, 1530.39694937116, 1639.69188772428, 1662.05765891152, 3009.3533117101997, 3011.8528943666793, 3016.5430453402396, 3079.47209881272, 3084.9519530980792, 3090.83695951732, 3093.05499577568, 3143.16338765572, 3146.4320726680403, 3159.08105962748, 3167.4725156885197, 3180.6639944882395]

>  <ZPE_kJmol>  (2) 
482.8876988097695

>  <E_elec_kJmol>  (2) 
-919454.8582551676

>  <E0_minus_Eelec_plus_ZPE_kJmol>  (2) 
0.0

>  <rxn>  (2) 
rxn_1053

>  <species_type>  (2) 
p0

>  <species_folder>  (2) 
rxn_1053_CC[C]c1ccccc1

>  <frequencies_cm1_list>  (2) 
[40.364139710959996, 128.71477283808, 218.52120685304, 233.34702815891998, 266.85791652052, 308.13536527904, 321.59465650623997, 414.80711523991994, 466.94813477468, 550.3133365594799, 568.586384496, 632.73089437012, 716.65918895116, 754.681686668, 783.96251207248, 862.0195342049199, 904.8283206898, 929.47393100328, 933.9718063878798, 965.95822400844, 981.62868450868, 994.4218781598398, 1016.0460149325199, 1049.9277205014, 1069.59476645788, 1107.56919527748, 1128.8637167548, 1168.97377800892, 1175.1197298703198, 1202.8829515190798, 1234.84190119836, 1303.2851438828, 1340.7170808621202, 1342.0355420435599, 1378.7945144615198, 1391.1344870815599, 1410.5131196546, 1472.453327241, 1477.58983226036, 1484.7452309638, 1489.7306623061197, 1494.12553291092, 1530.39694937116, 1639.69188772428, 1662.05765891152, 3009.3533117101997, 3011.8528943666793, 3016.5430453402396, 3079.47209881272, 3084.9519530980792, 3090.83695951732, 3093.05499577568, 3143.16338765572, 3146.4320726680403, 3159.08105962748, 3167.4725156885197, 3180.6639944882395]

>  <E0_kJmol>  (2) 
-918972

>  <H298_kJmol>  (2) 
-918947

$$$$

     RDKit          3D

 32 31  0  0  0  0  0  0  0  0999 V2000
   -2.0633   -1.0397   -2.6676 C   0  0  0  0  0  0  0  0  0  1  0  0
   -1.9957   -0.1998   -1.6274 C   0  0  0  0  0  0  0  0  0  2  0  0
   -1.3469    1.1017   -1.6148 C   0  0  0  0  0  3  0  0  0  3  0  0
   -0.9489    1.7429   -2.9188 C   0  0  0  0  0  0  0  0  0  4  0  0
   -1.6633   -0.7843   -3.6416 H   0  0  0  0  0  0  0  0  0  5  0  0
   -2.5392   -2.0069   -2.5729 H   0  0  0  0  0  0  0  0  0  6  0  0
   -2.4211   -0.5196   -0.6806 H   0  0  0  0  0  0  0  0  0  7  0  0
   -0.1758    0.8740   -0.9876 H   0  0  0  0  0  0  0  0  0  8  0  0
   -1.7799    1.7926   -0.8923 H   0  0  0  0  0  0  0  0  0  9  0  0
   -1.8237    1.9573   -3.5400 H   0  0  0  0  0  0  0  0  0 10  0  0
   -0.2885    1.0936   -3.4974 H   0  0  0  0  0  0  0  0  0 11  0  0
   -0.4224    2.6819   -2.7443 H   0  0  0  0  0  0  0  0  0 12  0  0
    1.6680   -0.2251   -1.5340 C   0  0  0  0  0  0  0  0  0 13  0  0
    1.0336    0.6218   -0.4515 C   0  0  0  0  0  0  0  0  0 14  0  0
    1.6428    1.9975   -0.3132 C   0  0  0  0  0  0  0  0  0 15  0  0
    0.6572   -0.0789    0.7974 C   0  0  0  0  0  0  0  0  0 16  0  0
    0.6517    0.5700    2.0371 C   0  0  0  0  0  0  0  0  0 17  0  0
    0.2414   -0.0802    3.1893 C   0  0  0  0  0  0  0  0  0 18  0  0
   -0.1835   -1.3985    3.1392 C   0  0  0  0  0  0  0  0  0 19  0  0
   -0.1886   -2.0592    1.9196 C   0  0  0  0  0  0  0  0  0 20  0  0
    0.2254   -1.4114    0.7691 C   0  0  0  0  0  0  0  0  0 21  0  0
    1.0012   -1.0170   -1.8783 H   0  0  0  0  0  0  0  0  0 22  0  0
    1.9170    0.3893   -2.4001 H   0  0  0  0  0  0  0  0  0 23  0  0
    2.5902   -0.6958   -1.1781 H   0  0  0  0  0  0  0  0  0 24  0  0
    2.6075    1.9599    0.2045 H   0  0  0  0  0  0  0  0  0 25  0  0
    1.8132    2.4340   -1.2981 H   0  0  0  0  0  0  0  0  0 26  0  0
    0.9954    2.6795    0.2406 H   0  0  0  0  0  0  0  0  0 27  0  0
    0.9837    1.5965    2.1118 H   0  0  0  0  0  0  0  0  0 28  0  0
    0.2565    0.4490    4.1342 H   0  0  0  0  0  0  0  0  0 29  0  0
   -0.5047   -1.9061    4.0397 H   0  0  0  0  0  0  0  0  0 30  0  0
   -0.5176   -3.0895    1.8625 H   0  0  0  0  0  0  0  0  0 31  0  0
    0.2020   -1.9491   -0.1688 H   0  0  0  0  0  0  0  0  0 32  0  0
  1  5  1  0
  1  6  1  0
  1  2  1  0
  2  3  1  0
  2  7  1  0
  3  4  1  0
  3  9  1  0
  4 10  1  0
  4 11  1  0
  4 12  1  0
  8 14  1  0
 13 23  1  0
 13 24  1  0
 13 14  1  0
 13 22  1  0
 14 15  1  0
 14 16  1  0
 15 25  1  0
 15 27  1  0
 15 26  1  0
 16 21  1  0
 16 17  1  0
 17 18  1  0
 17 28  1  0
 18 19  1  0
 18 29  1  0
 19 20  1  0
 19 30  1  0
 20 31  1  0
 20 21  1  0
 21 32  1  0
M  RAD  1   3   2
M  END
>  <rmg_smiles>  (3) 
CC(C)C1[CH][CH][CH][CH][CH]1.[CH2][CH][CH]C

>  <rmg_adjacency_list>  (3) 
multiplicity 2
1  C u0 p0 c0 {2,S} {3,S} {5,S} {14,S}
2  C u0 p0 c0 {1,S} {15,S} {16,S} {17,S}
3  C u0 p0 c0 {1,S} {18,S} {19,S} {20,S}
4  C u0 p0 c0 {6,S} {21,S} {22,S} {23,S}
5  C u0 p0 c0 {1,S} {7,S} {8,S}
6  C u1 p0 c0 {4,S} {12,S} {24,S}
7  C u0 p0 c0 {5,S} {9,S} {26,S}
8  C u0 p0 c0 {5,S} {11,S} {30,S}
9  C u0 p0 c0 {7,S} {10,S} {27,S}
10 C u0 p0 c0 {9,S} {11,S} {28,S}
11 C u0 p0 c0 {8,S} {10,S} {29,S}
12 C u0 p0 c0 {6,S} {13,S} {25,S}
13 C u0 p0 c0 {12,S} {31,S} {32,S}
14 H u0 p0 c0 {1,S}
15 H u0 p0 c0 {2,S}
16 H u0 p0 c0 {2,S}
17 H u0 p0 c0 {2,S}
18 H u0 p0 c0 {3,S}
19 H u0 p0 c0 {3,S}
20 H u0 p0 c0 {3,S}
21 H u0 p0 c0 {4,S}
22 H u0 p0 c0 {4,S}
23 H u0 p0 c0 {4,S}
24 H u0 p0 c0 {6,S}
25 H u0 p0 c0 {12,S}
26 H u0 p0 c0 {7,S}
27 H u0 p0 c0 {9,S}
28 H u0 p0 c0 {10,S}
29 H u0 p0 c0 {11,S}
30 H u0 p0 c0 {8,S}
31 H u0 p0 c0 {13,S}
32 H u0 p0 c0 {13,S}


>  <multiplicity>  (3) 
2

>  <reaction>  (3) 
rxn_1053

>  <type>  (3) 
ts

>  <role_mapnums>  (3) 
{"*2": 8, "*1": 3, "*3": 14, "*0": 16, "*4": 2}

>  <role_mapidx>  (3) 
{"*2": 7, "*1": 2, "*3": 13, "*0": 15, "*4": 1}

>  <ordered_mapped_smiles>  (3) 
[CH:1]([CH:2]([C:3]([C:4]([H:10])([H:11])[H:12])[H:9])[H:7])([H:5])[H:6].[H:8][C:14]([C:13]([H:22])([H:23])[H:24])([C:15]([H:25])([H:26])[H:27])[CH:16]1[CH:17]([H:28])[CH:18]([H:29])[CH:19]([H:30])[CH:20]([H:31])[CH:21]1[H:32]

>  <mol_properties>  (3) 
{"1": {"label": "*4", "atom_type": "Cs"}, "2": {"label": "*1", "atom_type": "Cs"}, "7": {"label": "*2", "atom_type": "H0"}, "13": {"label": "*3", "atom_type": "Cs"}, "15": {"label": "*0", "atom_type": "Cs"}}

>  <level_of_theory>  (3) 
wb97xd/def2tzvp

>  <lot_method>  (3) 
wb97xd

>  <lot_basis>  (3) 
def2tzvp

>  <spin_multiplicity>  (3) 
2.0

>  <optical_isomers>  (3) 
2.0

>  <modes>  (3) 
IdealGasTranslation(mass=(175.149, 'amu')),         NonlinearRotor(             inertia = ([457.381, 958.755, 1161.66

>  <frequency_value>  (3) 
-1730.98

>  <frequency_units>  (3) 
cm^-1

>  <frequency_list>  (3) 
unknown

>  <arkane_path>  (3) 
/home/calvin/Dropbox/PersonalFolders/Calvin/HAb_Converged/rxn_1053/output/rxns/TS0/arkane/output.py

>  <path_exists>  (3) 
True

>  <E0_value>  (3) 
-1329760.0

>  <E0_units>  (3) 
kJ/mol

>  <thermo_class>  (3) 
unknown

>  <Cp0_value>  (3) 
unknown

>  <Cp0_units>  (3) 
unknown

>  <CpInf_value>  (3) 
unknown

>  <CpInf_units>  (3) 
unknown

>  <Tmin_value>  (3) 
unknown

>  <Tmin_units>  (3) 
unknown

>  <Tmax_value>  (3) 
unknown

>  <Tmax_units>  (3) 
unknown

>  <polynomials>  (3) 
unknown

>  <H298_value>  (3) 
unknown

>  <H298_units>  (3) 
unknown

>  <S298_value>  (3) 
unknown

>  <S298_units>  (3) 
unknown

>  <Cp_T_value_list>  (3) 
unknown

>  <Cp_T_units>  (3) 
unknown

>  <T_list>  (3) 
unknown

>  <T_units>  (3) 
unknown

>  <yaml_path>  (3) 
unknown

>  <frequencies_cm1>  (3) 
unknown

>  <ZPE_kJmol>  (3) 
unknown

>  <E_elec_kJmol>  (3) 
unknown

>  <E0_minus_Eelec_plus_ZPE_kJmol>  (3) 
unknown

>  <rxn>  (3) 
unknown

>  <species_type>  (3) 
unknown

>  <species_folder>  (3) 
unknown

>  <frequencies_cm1_list>  (3) 
[]

>  <ts_imag_freq_cm1>  (3) 
-1752.0058

>  <ts_freq_out_path>  (3) 
/home/calvin/Dropbox/PersonalFolders/Calvin/HAb_Converged/rxn_1053/output/rxns/TS0/geometry/freq.out

>  <E0_kJmol>  (3) 
-1.32976e+06

>  <H298_kJmol>  (3) 
unknown

$$$$

     RDKit          3D

 11 10  0  0  0  0  0  0  0  0999 V2000
    2.0591    0.2533   -0.1061 C   0  0  0  0  0  0  0  0  0  1  0  0
    0.8045   -0.3111   -0.1535 C   0  0  0  0  0  0  0  0  0  2  0  0
   -0.3816    0.3942   -0.1885 C   0  0  0  0  0  3  0  0  0  3  0  0
   -1.7316   -0.2294   -0.2396 C   0  0  0  0  0  0  0  0  0  4  0  0
    2.9505   -0.3576   -0.0805 H   0  0  0  0  0  0  0  0  0  5  0  0
    2.1872    1.3290   -0.0933 H   0  0  0  0  0  0  0  0  0  6  0  0
    0.7385   -1.3970   -0.1643 H   0  0  0  0  0  0  0  0  0  7  0  0
   -0.3340    1.4795   -0.1783 H   0  0  0  0  0  0  0  0  0  8  0  0
   -1.6704   -1.3186   -0.2461 H   0  0  0  0  0  0  0  0  0  9  0  0
   -2.3404    0.0713    0.6191 H   0  0  0  0  0  0  0  0  0 10  0  0
   -2.2805    0.0851   -1.1331 H   0  0  0  0  0  0  0  0  0 11  0  0
  1  5  1  0
  1  6  1  0
  1  2  1  0
  2  7  1  0
  2  3  1  0
  3  4  1  0
  3  8  1  0
  4  9  1  0
  4 10  1  0
  4 11  1  0
M  RAD  1   3   2
M  END
>  <rmg_smiles>  (4) 
[CH2][CH][CH]C

>  <rmg_adjacency_list>  (4) 
multiplicity 2
1  C u0 p0 c0 {2,S} {5,S} {6,S} {7,S}
2  C u1 p0 c0 {1,S} {3,S} {8,S}
3  C u0 p0 c0 {2,S} {4,S} {9,S}
4  C u0 p0 c0 {3,S} {10,S} {11,S}
5  H u0 p0 c0 {1,S}
6  H u0 p0 c0 {1,S}
7  H u0 p0 c0 {1,S}
8  H u0 p0 c0 {2,S}
9  H u0 p0 c0 {3,S}
10 H u0 p0 c0 {4,S}
11 H u0 p0 c0 {4,S}


>  <multiplicity>  (4) 
2

>  <reaction>  (4) 
rxn_1053

>  <type>  (4) 
r1

>  <role_mapnums>  (4) 
{}

>  <role_mapidx>  (4) 
{}

>  <ordered_mapped_smiles>  (4) 
[CH:1]([CH:2]([C:3]([C:4]([H:9])([H:10])[H:11])[H:8])[H:7])([H:5])[H:6]

>  <level_of_theory>  (4) 
wb97xd/def2tzvp

>  <lot_method>  (4) 
wb97xd

>  <lot_basis>  (4) 
def2tzvp

>  <spin_multiplicity>  (4) 
2.0

>  <optical_isomers>  (4) 
1.0

>  <modes>  (4) 
IdealGasTranslation(mass=(55.0548, 'amu')),         NonlinearRotor(             inertia = ([13.1906, 125.273, 135.366

>  <frequency_value>  (4) 
unknown

>  <frequency_units>  (4) 
unknown

>  <frequency_list>  (4) 
unknown

>  <arkane_path>  (4) 
/home/calvin/Dropbox/PersonalFolders/Calvin/HAb_Converged/rxn_1053/output/Species/rxn_1053_C=C[CH]C/arkane/output.py

>  <path_exists>  (4) 
True

>  <E0_value>  (4) 
-410861.3152330692

>  <E0_units>  (4) 
kJ/mol

>  <thermo_class>  (4) 
NASA

>  <Cp0_value>  (4) 
33.257888

>  <Cp0_units>  (4) 
J/(mol*K)

>  <CpInf_value>  (4) 
257.748632

>  <CpInf_units>  (4) 
J/(mol*K)

>  <Tmin_value>  (4) 
10.0

>  <Tmin_units>  (4) 
K

>  <Tmax_value>  (4) 
3000.0

>  <Tmax_units>  (4) 
K

>  <polynomials>  (4) 
[{"name": "polynomial1", "class": "NASAPolynomial", "Tmin_value": 10.0, "Tmin_units": "K", "Tmax_value": 463.6393307218724, "Tmax_units": "K", "coeffs": [3.9040427866109826, 0.008185983411080414, 7.727991952880457e-05, -1.3744264793304484e-07, 7.688975074355223e-11, -49415200.70388584, 8.995587426851019]}, {"name": "polynomial2", "class": "NASAPolynomial", "Tmin_value": 463.6393307218724, "Tmin_units": "K", "Tmax_value": 3000.0, "Tmax_units": "K", "coeffs": [0.3179549217714686, 0.039124611253892716, -2.281509301051405e-05, 6.484032923156998e-09, -7.173482644836273e-13, -49414868.17391742, 23.539944648157388]}]

>  <H298_value>  (4) 
-98194.28584360852

>  <H298_units>  (4) 
kcal/mol

>  <S298_value>  (4) 
71.63337428638437

>  <S298_units>  (4) 
cal/(mol*K)

>  <Cp_T_value_list>  (4) 
[20.32293445175687, 25.26787004109902, 29.6931518167585, 33.55769976572619, 39.8275597158211, 44.50181601093726, 51.51425090015371, 55.048594012523054, 56.90855371865896]

>  <Cp_T_units>  (4) 
cal/(mol*K)

>  <T_list>  (4) 
[300.0, 400.0, 500.0, 600.0, 800.0, 1000.0, 1500.0, 2000.0, 2400.0]

>  <T_units>  (4) 
K

>  <yaml_path>  (4) 
/home/calvin/Dropbox/PersonalFolders/Calvin/HAb_Converged/rxn_1053/output/Species/rxn_1053_C=C[CH]C/rxn_1053_C=CCHC.yml

>  <frequencies_cm1>  (4) 
[145.86850216744, 217.17527773031998, 290.56274984515994, 508.82301125604, 544.53820190536, 739.89020028872, 798.30764440596, 881.33636391008, 988.4682018873999, 989.4158458615598, 1023.15334473872, 1138.3744914229999, 1188.9155033782, 1281.84641571376, 1335.3196304005999, 1400.47358711676, 1459.61893167792, 1463.37517264796, 1502.4895210306797, 1514.45180945812, 2991.0802637736797, 3039.3139686613595, 3086.1330745731198, 3108.55378164292, 3124.5401234678798, 3127.2937845812003, 3223.3011063401195]

>  <ZPE_kJmol>  (4) 
245.90815043438468

>  <E_elec_kJmol>  (4) 
-411107.2233835036

>  <E0_minus_Eelec_plus_ZPE_kJmol>  (4) 
0.0

>  <rxn>  (4) 
rxn_1053

>  <species_type>  (4) 
p1

>  <species_folder>  (4) 
rxn_1053_C=C[CH]C

>  <frequencies_cm1_list>  (4) 
[145.86850216744, 217.17527773031998, 290.56274984515994, 508.82301125604, 544.53820190536, 739.89020028872, 798.30764440596, 881.33636391008, 988.4682018873999, 989.4158458615598, 1023.15334473872, 1138.3744914229999, 1188.9155033782, 1281.84641571376, 1335.3196304005999, 1400.47358711676, 1459.61893167792, 1463.37517264796, 1502.4895210306797, 1514.45180945812, 2991.0802637736797, 3039.3139686613595, 3086.1330745731198, 3108.55378164292, 3124.5401234678798, 3127.2937845812003, 3223.3011063401195]

>  <E0_kJmol>  (4) 
-410861

>  <H298_kJmol>  (4) 
-410845

$$$$

     RDKit          3D

 20 20  0  0  0  0  0  0  0  0999 V2000
   -2.4774    0.8083    0.1488 C   0  0  0  0  0  0  0  0  0  1  0  0
   -1.4172   -0.1696   -0.2476 C   0  0  0  0  0  3  0  0  0  2  0  0
   -0.2904    0.2932   -1.1156 C   0  0  0  0  0  0  0  0  0  3  0  0
   -1.4797   -1.5204    0.1947 C   0  0  0  0  0  0  0  0  0  4  0  0
   -0.4907   -2.4664   -0.1650 C   0  0  0  0  0  0  0  0  0  5  0  0
   -0.5559   -3.7750    0.2665 C   0  0  0  0  0  0  0  0  0  6  0  0
   -1.6038   -4.2041    1.0733 C   0  0  0  0  0  0  0  0  0  7  0  0
   -2.5899   -3.2959    1.4424 C   0  0  0  0  0  0  0  0  0  8  0  0
   -2.5339   -1.9852    1.0162 C   0  0  0  0  0  0  0  0  0  9  0  0
   -3.4697    0.4933   -0.1924 H   0  0  0  0  0  0  0  0  0 10  0  0
   -2.5434    0.9184    1.2368 H   0  0  0  0  0  0  0  0  0 11  0  0
   -2.2829    1.7944   -0.2706 H   0  0  0  0  0  0  0  0  0 12  0  0
   -0.2452   -0.2661   -2.0565 H   0  0  0  0  0  0  0  0  0 13  0  0
   -0.3905    1.3487   -1.3647 H   0  0  0  0  0  0  0  0  0 14  0  0
    0.6811    0.1589   -0.6274 H   0  0  0  0  0  0  0  0  0 15  0  0
    0.3373   -2.1635   -0.7918 H   0  0  0  0  0  0  0  0  0 16  0  0
    0.2187   -4.4725   -0.0281 H   0  0  0  0  0  0  0  0  0 17  0  0
   -1.6513   -5.2316    1.4097 H   0  0  0  0  0  0  0  0  0 18  0  0
   -3.4116   -3.6175    2.0706 H   0  0  0  0  0  0  0  0  0 19  0  0
   -3.3164   -1.3029    1.3205 H   0  0  0  0  0  0  0  0  0 20  0  0
  1 11  1  0
  1 10  1  0
  1 12  1  0
  1  2  1  0
  2  3  1  0
  2  4  1  0
  3 15  1  0
  3 13  1  0
  3 14  1  0
  4  9  1  0
  4  5  1  0
  5 16  1  0
  5  6  1  0
  6  7  1  0
  6 17  1  0
  7 18  1  0
  7  8  1  0
  8 19  1  0
  8  9  1  0
  9 20  1  0
M  RAD  1   2   2
M  END
>  <rmg_smiles>  (5) 
C[C](C)C1[CH][CH][CH][CH][CH]1

>  <rmg_adjacency_list>  (5) 
multiplicity 2
1  C u0 p0 c0 {3,S} {10,S} {11,S} {12,S}
2  C u0 p0 c0 {3,S} {13,S} {14,S} {15,S}
3  C u1 p0 c0 {1,S} {2,S} {4,S}
4  C u0 p0 c0 {3,S} {5,S} {6,S}
5  C u0 p0 c0 {4,S} {7,S} {16,S}
6  C u0 p0 c0 {4,S} {9,S} {20,S}
7  C u0 p0 c0 {5,S} {8,S} {17,S}
8  C u0 p0 c0 {7,S} {9,S} {18,S}
9  C u0 p0 c0 {6,S} {8,S} {19,S}
10 H u0 p0 c0 {1,S}
11 H u0 p0 c0 {1,S}
12 H u0 p0 c0 {1,S}
13 H u0 p0 c0 {2,S}
14 H u0 p0 c0 {2,S}
15 H u0 p0 c0 {2,S}
16 H u0 p0 c0 {5,S}
17 H u0 p0 c0 {7,S}
18 H u0 p0 c0 {8,S}
19 H u0 p0 c0 {9,S}
20 H u0 p0 c0 {6,S}


>  <multiplicity>  (5) 
2

>  <reaction>  (5) 
rxn_1053

>  <type>  (5) 
r2

>  <role_mapnums>  (5) 
{}

>  <role_mapidx>  (5) 
{}

>  <ordered_mapped_smiles>  (5) 
[C:1]([C:2]([C:3]([H:13])([H:14])[H:15])[CH:4]1[CH:5]([H:16])[CH:6]([H:17])[CH:7]([H:18])[CH:8]([H:19])[CH:9]1[H:20])([H:10])([H:11])[H:12]

>  <level_of_theory>  (5) 
wb97xd/def2tzvp

>  <lot_method>  (5) 
wb97xd

>  <lot_basis>  (5) 
def2tzvp

>  <spin_multiplicity>  (5) 
2.0

>  <optical_isomers>  (5) 
1.0

>  <modes>  (5) 
IdealGasTranslation(mass=(119.086, 'amu')),         NonlinearRotor(             inertia = ([147.943, 418.336, 560.064

>  <frequency_value>  (5) 
unknown

>  <frequency_units>  (5) 
unknown

>  <frequency_list>  (5) 
unknown

>  <arkane_path>  (5) 
/home/calvin/Dropbox/PersonalFolders/Calvin/HAb_Converged/rxn_1053/output/Species/rxn_1053_C[C][C]c1ccccc1/arkane/output.py

>  <path_exists>  (5) 
True

>  <E0_value>  (5) 
-917305.6793154374

>  <E0_units>  (5) 
kJ/mol

>  <thermo_class>  (5) 
NASA

>  <Cp0_value>  (5) 
33.257888

>  <Cp0_units>  (5) 
J/(mol*K)

>  <CpInf_value>  (5) 
482.239376

>  <CpInf_units>  (5) 
J/(mol*K)

>  <Tmin_value>  (5) 
10.0

>  <Tmin_units>  (5) 
K

>  <Tmax_value>  (5) 
3000.0

>  <Tmax_units>  (5) 
K

>  <polynomials>  (5) 
[{"name": "polynomial1", "class": "NASAPolynomial", "Tmin_value": 10.0, "Tmin_units": "K", "Tmax_value": 820.2225002457031, "Tmax_units": "K", "coeffs": [3.7087715908878534, 0.03551334410867291, 7.625059119540152e-05, -1.2560734316113271e-07, 5.320480088877488e-11, -110326392.84742013, 12.19412592857727]}, {"name": "polynomial2", "class": "NASAPolynomial", "Tmin_value": 820.2225002457031, "Tmin_units": "K", "Tmax_value": 3000.0, "Tmax_units": "K", "coeffs": [2.0631615838326263, 0.07155383546720528, -4.0892856549356014e-05, 1.1247434201086425e-08, -1.200197285964276e-12, -110327065.27984656, 14.06242109608226]}]

>  <H298_value>  (5) 
-219235.10103074583

>  <H298_units>  (5) 
kcal/mol

>  <S298_value>  (5) 
91.98557876161978

>  <S298_units>  (5) 
cal/(mol*K)

>  <Cp_T_value_list>  (5) 
[36.29610547032918, 46.57490747487287, 55.94477856481854, 64.04994476982951, 76.31181375819965, 84.99555925751662, 97.907834516263, 104.08137794150619, 107.1390022615462]

>  <Cp_T_units>  (5) 
cal/(mol*K)

>  <T_list>  (5) 
[300.0, 400.0, 500.0, 600.0, 800.0, 1000.0, 1500.0, 2000.0, 2400.0]

>  <T_units>  (5) 
K

>  <yaml_path>  (5) 
/home/calvin/Dropbox/PersonalFolders/Calvin/HAb_Converged/rxn_1053/output/Species/rxn_1053_C[C][C]c1ccccc1/rxn_1053_CCCc1ccccc1.yml

>  <frequencies_cm1>  (5) 
[63.56081612192, 120.90701052923998, 139.35173309875998, 146.39726003707997, 226.46630886828, 338.41877054023996, 360.33818768168, 416.18737928923997, 451.99870773303996, 518.2376481297599, 524.17759043156, 626.9420257453601, 690.9491959130801, 730.7777107690799, 767.1040631118799, 830.7266821016799, 897.8583305899999, 913.4944561636399, 942.5692720085199, 968.56767843004, 978.9505602338799, 993.91372124616, 999.23563486916, 1039.80578413972, 1044.4753341573198, 1105.9691876979198, 1113.02158162156, 1170.28537220504, 1199.70353731592, 1239.75866268748, 1319.3882244581998, 1348.18836089028, 1355.0896811368798, 1389.11559339748, 1406.12511603512, 1462.54426742424, 1462.78461191044, 1474.0258668792799, 1486.24910074888, 1486.8121935451197, 1509.72045657264, 1596.1139988835598, 1617.80680550944, 2981.31541064864, 2984.9205779416397, 3027.138803689, 3028.1413835457197, 3095.76058799176, 3103.71255699232, 3152.0767346010794, 3159.1703304366397, 3175.07426843776, 3181.8657169192397, 3186.23311958276]

>  <ZPE_kJmol>  (5) 
445.9053042173275

>  <E_elec_kJmol>  (5) 
-917751.5846196548

>  <E0_minus_Eelec_plus_ZPE_kJmol>  (5) 
0.0

>  <rxn>  (5) 
rxn_1053

>  <species_type>  (5) 
r1

>  <species_folder>  (5) 
rxn_1053_C[C][C]c1ccccc1

>  <frequencies_cm1_list>  (5) 
[63.56081612192, 120.90701052923998, 139.35173309875998, 146.39726003707997, 226.46630886828, 338.41877054023996, 360.33818768168, 416.18737928923997, 451.99870773303996, 518.2376481297599, 524.17759043156, 626.9420257453601, 690.9491959130801, 730.7777107690799, 767.1040631118799, 830.7266821016799, 897.8583305899999, 913.4944561636399, 942.5692720085199, 968.56767843004, 978.9505602338799, 993.91372124616, 999.23563486916, 1039.80578413972, 1044.4753341573198, 1105.9691876979198, 1113.02158162156, 1170.28537220504, 1199.70353731592, 1239.75866268748, 1319.3882244581998, 1348.18836089028, 1355.0896811368798, 1389.11559339748, 1406.12511603512, 1462.54426742424, 1462.78461191044, 1474.0258668792799, 1486.24910074888, 1486.8121935451197, 1509.72045657264, 1596.1139988835598, 1617.80680550944, 2981.31541064864, 2984.9205779416397, 3027.138803689, 3028.1413835457197, 3095.76058799176, 3103.71255699232, 3152.0767346010794, 3159.1703304366397, 3175.07426843776, 3181.8657169192397, 3186.23311958276]

>  <E0_kJmol>  (5) 
-917306

>  <H298_kJmol>  (5) 
-917280

$$$$
