
     RDKit          3D

  8  7  0  0  0  0  0  0  0  0999 V2000
    0.4799   -0.0641   -0.5739 C   0  0  0  0  0  0  0  0  0  1  0  0
   -0.4938    0.0099    0.5533 C   0  0  0  0  0  0  0  0  0  2  0  0
    0.3588    0.7824   -1.2525 H   0  0  0  0  0  0  0  0  0  3  0  0
    1.5103   -0.0740   -0.2155 H   0  0  0  0  0  0  0  0  0  4  0  0
    0.3286   -0.9775   -1.1614 H   0  0  0  0  0  0  0  0  0  5  0  0
   -0.2573    0.9772    0.9863 H   0  0  0  0  0  0  0  0  0  6  0  0
   -0.3350   -0.6441    1.4058 H   0  0  0  0  0  0  0  0  0  7  0  0
   -1.5363    0.1842    0.3050 H   0  0  0  0  0  0  0  0  0  8  0  0
  1  5  1  0
  1  4  1  0
  1  3  1  0
  1  2  1  0
  2  8  1  0
  2  7  1  0
  2  6  1  0
M  END
>  <rmg_smiles>  (1) 
CC

>  <rmg_adjacency_list>  (1) 
1 C u0 p0 c0 {2,S} {3,S} {4,S} {5,S}
2 C u0 p0 c0 {1,S} {6,S} {7,S} {8,S}
3 H u0 p0 c0 {1,S}
4 H u0 p0 c0 {1,S}
5 H u0 p0 c0 {1,S}
6 H u0 p0 c0 {2,S}
7 H u0 p0 c0 {2,S}
8 H u0 p0 c0 {2,S}


>  <multiplicity>  (1) 
1

>  <reaction>  (1) 
rxn_898

>  <type>  (1) 
r1h

>  <role_mapnums>  (1) 
{"r1h_a": 2, "r1h_h": 6}

>  <role_mapidx>  (1) 
{"r1h_a": 1, "r1h_h": 5}

>  <ordered_mapped_smiles>  (1) 
[C:1]([C:2]([H:6])([H:7])[H:8])([H:3])([H:4])[H:5]

>  <mol_properties>  (1) 
{"1": {"label": "donator", "atom_type": "Cs"}, "5": {"label": "d_hydrogen", "atom_type": "H0"}}

>  <level_of_theory>  (1) 
wb97xd/def2tzvp

>  <lot_method>  (1) 
wb97xd

>  <lot_basis>  (1) 
def2tzvp

>  <spin_multiplicity>  (1) 
1.0

>  <optical_isomers>  (1) 
1.0

>  <modes>  (1) 
IdealGasTranslation(mass=(30.0469, 'amu')),         NonlinearRotor(             inertia = ([6.25566, 25.1393, 25.1393

>  <frequency_value>  (1) 
unknown

>  <frequency_units>  (1) 
unknown

>  <frequency_list>  (1) 
unknown

>  <arkane_path>  (1) 
/home/calvin/Dropbox/PersonalFolders/Calvin/HAb_Converged/rxn_898/output/Species/rxn_898_CC/arkane/output.py

>  <path_exists>  (1) 
True

>  <E0_value>  (1) 
-209409.0952137841

>  <E0_units>  (1) 
kJ/mol

>  <thermo_class>  (1) 
NASA

>  <Cp0_value>  (1) 
33.257888

>  <Cp0_units>  (1) 
J/(mol*K)

>  <CpInf_value>  (1) 
182.918384

>  <CpInf_units>  (1) 
J/(mol*K)

>  <Tmin_value>  (1) 
10.0

>  <Tmin_units>  (1) 
K

>  <Tmax_value>  (1) 
3000.0

>  <Tmax_units>  (1) 
K

>  <polynomials>  (1) 
[{"name": "polynomial1", "class": "NASAPolynomial", "Tmin_value": 10.0, "Tmin_units": "K", "Tmax_value": 746.6686841225998, "Tmax_units": "K", "coeffs": [4.05949155328205, -0.003835565665241399, 5.3186040380635144e-05, -6.162047637406245e-08, 2.3242210517060023e-11, -25186098.42214424, 3.537324504259843]}, {"name": "polynomial2", "class": "NASAPolynomial", "Tmin_value": 746.6686841225998, "Tmin_units": "K", "Tmax_value": 3000.0, "Tmax_units": "K", "coeffs": [-1.046496014036793, 0.026500176421266477, -1.3747367898389822e-05, 3.490635384402257e-09, -3.493819827122593e-13, -25185419.059970565, 26.122432242478077]}]

>  <H298_value>  (1) 
-50047.2003571238

>  <H298_units>  (1) 
kcal/mol

>  <S298_value>  (1) 
54.420548043106656

>  <S298_units>  (1) 
cal/(mol*K)

>  <Cp_T_value_list>  (1) 
[12.360572544544063, 15.274308747535915, 18.259044378417013, 21.07888414556187, 25.832548078118208, 29.50517950077797, 35.34115403896942, 38.351806873475496, 39.80767330504735]

>  <Cp_T_units>  (1) 
cal/(mol*K)

>  <T_list>  (1) 
[300.0, 400.0, 500.0, 600.0, 800.0, 1000.0, 1500.0, 2000.0, 2400.0]

>  <T_units>  (1) 
K

>  <yaml_path>  (1) 
/home/calvin/Dropbox/PersonalFolders/Calvin/HAb_Converged/rxn_898/output/Species/rxn_898_CC/rxn_898_CC.yml

>  <frequencies_cm1>  (1) 
[304.49586305944, 822.3970289085198, 822.4107628791601, 1005.43652261312, 1210.79371860772, 1210.8005855930398, 1393.77140944444, 1414.4616362136, 1489.39418002544, 1489.4010470107598, 1490.3006220876798, 1490.3006220876798, 3015.21771717348, 3016.07609033848, 3072.8111230523195, 3072.8179900376404, 3096.4266855677993, 3096.4335525531196]

>  <ZPE_kJmol>  (1) 
194.47545128409476

>  <E_elec_kJmol>  (1) 
-209603.57066506823

>  <E0_minus_Eelec_plus_ZPE_kJmol>  (1) 
0.0

>  <rxn>  (1) 
rxn_898

>  <species_type>  (1) 
r1

>  <species_folder>  (1) 
rxn_898_CC

>  <frequencies_cm1_list>  (1) 
[304.49586305944, 822.3970289085198, 822.4107628791601, 1005.43652261312, 1210.79371860772, 1210.8005855930398, 1393.77140944444, 1414.4616362136, 1489.39418002544, 1489.4010470107598, 1490.3006220876798, 1490.3006220876798, 3015.21771717348, 3016.07609033848, 3072.8111230523195, 3072.8179900376404, 3096.4266855677993, 3096.4335525531196]

>  <E0_kJmol>  (1) 
-209409

>  <H298_kJmol>  (1) 
-209397

$$$$

     RDKit          3D

  8  7  0  0  0  0  0  0  0  0999 V2000
   -1.4913    0.5396   -0.7348 S   0  0  0  0  0  0  0  0  0  1  0  0
   -0.9405   -0.5026    0.6052 C   0  0  0  0  0  0  0  0  0  2  0  0
    0.4742   -0.5465    0.9609 C   0  0  0  0  0  0  0  0  0  3  0  0
    1.7415   -0.0700    0.0715 S   0  0  0  0  0  0  0  0  0  4  0  0
   -0.2722    0.6566   -1.2925 H   0  0  0  0  0  0  0  0  0  5  0  0
   -1.5822   -0.3679    1.4754 H   0  0  0  0  0  0  0  0  0  6  0  0
    0.6564   -1.0282    1.9221 H   0  0  0  0  0  0  0  0  0  7  0  0
   -1.1586   -1.5329    0.3255 H   0  0  0  0  0  0  0  0  0  8  0  0
  1  2  1  0
  1  5  1  0
  2  8  1  0
  2  6  1  0
  2  3  1  0
  3  7  1  0
  3  4  1  0
M  END
>  <rmg_smiles>  (2) 
[S][CH]CS

>  <rmg_adjacency_list>  (2) 
1 S u0 p2 c0 {3,S} {8,S}
2 S u0 p2 c0 {4,S}
3 C u0 p0 c0 {1,S} {4,S} {5,S} {6,S}
4 C u0 p0 c0 {2,S} {3,S} {7,S}
5 H u0 p0 c0 {3,S}
6 H u0 p0 c0 {3,S}
7 H u0 p0 c0 {4,S}
8 H u0 p0 c0 {1,S}


>  <multiplicity>  (2) 
1

>  <reaction>  (2) 
rxn_898

>  <type>  (2) 
r2h

>  <role_mapnums>  (2) 
{"r2h_a": 2, "r2h_h": 8}

>  <role_mapidx>  (2) 
{"r2h_a": 1, "r2h_h": 7}

>  <ordered_mapped_smiles>  (2) 
[S:1]([C:2]([CH:3]([SH:4])[H:7])([H:6])[H:8])[H:5]

>  <mol_properties>  (2) 
{"1": {"label": "acceptor", "atom_type": "Cs"}, "7": {"label": "a_hydrogen", "atom_type": "H0"}}

>  <level_of_theory>  (2) 
wb97xd/def2tzvp

>  <lot_method>  (2) 
wb97xd

>  <lot_basis>  (2) 
def2tzvp

>  <spin_multiplicity>  (2) 
1.0

>  <optical_isomers>  (2) 
2.0

>  <modes>  (2) 
IdealGasTranslation(mass=(91.9754, 'amu')),         NonlinearRotor(             inertia = ([28.3667, 272.927, 283.105

>  <frequency_value>  (2) 
unknown

>  <frequency_units>  (2) 
unknown

>  <frequency_list>  (2) 
unknown

>  <arkane_path>  (2) 
/home/calvin/Dropbox/PersonalFolders/Calvin/HAb_Converged/rxn_898/output/Species/rxn_898_SCC=S/arkane/output.py

>  <path_exists>  (2) 
True

>  <E0_value>  (2) 
-2297161.3466777904

>  <E0_units>  (2) 
kJ/mol

>  <thermo_class>  (2) 
NASA

>  <Cp0_value>  (2) 
33.257888

>  <Cp0_units>  (2) 
J/(mol*K)

>  <CpInf_value>  (2) 
182.918384

>  <CpInf_units>  (2) 
J/(mol*K)

>  <Tmin_value>  (2) 
10.0

>  <Tmin_units>  (2) 
K

>  <Tmax_value>  (2) 
3000.0

>  <Tmax_units>  (2) 
K

>  <polynomials>  (2) 
[{"name": "polynomial1", "class": "NASAPolynomial", "Tmin_value": 10.0, "Tmin_units": "K", "Tmax_value": 567.3985410848345, "Tmax_units": "K", "coeffs": [3.827762255477858, 0.0148243677948894, 3.0300423651881606e-05, -6.991525360518275e-08, 4.130808720690426e-11, -276284690.67862564, 11.183445317954005]}, {"name": "polynomial2", "class": "NASAPolynomial", "Tmin_value": 567.3985410848345, "Tmin_units": "K", "Tmax_value": 3000.0, "Tmax_units": "K", "coeffs": [3.2084105787689583, 0.02574254947061171, -1.5884331254161568e-05, 4.70098747996834e-09, -5.353239956477021e-13, -276284725.86150384, 12.891088264548623]}]

>  <H298_value>  (2) 
-549030.8628187295

>  <H298_units>  (2) 
kcal/mol

>  <S298_value>  (2) 
75.94771372042368

>  <S298_units>  (2) 
cal/(mol*K)

>  <Cp_T_value_list>  (2) 
[18.77710306271184, 22.233836008986053, 25.15286918611867, 27.585638185889195, 31.445784266887134, 34.24412324427564, 38.230364497139824, 40.139386212339545, 41.179820759380895]

>  <Cp_T_units>  (2) 
cal/(mol*K)

>  <T_list>  (2) 
[300.0, 400.0, 500.0, 600.0, 800.0, 1000.0, 1500.0, 2000.0, 2400.0]

>  <T_units>  (2) 
K

>  <yaml_path>  (2) 
/home/calvin/Dropbox/PersonalFolders/Calvin/HAb_Converged/rxn_898/output/Species/rxn_898_SCC=S/rxn_898_SCC=S.yml

>  <frequencies_cm1>  (2) 
[80.75574736319999, 266.2330208564, 305.26496541528, 376.90135627352, 683.70452640048, 787.8972946608399, 844.3027120793199, 953.5015126379599, 1032.3482380822, 1160.69906069832, 1182.2888625443998, 1236.400706866, 1388.44949582144, 1449.3115867126, 2698.0591331839596, 3041.5869408022795, 3077.6798156442, 3121.4774480151596]

>  <ZPE_kJmol>  (2) 
141.6789408228882

>  <E_elec_kJmol>  (2) 
-2297303.025618613

>  <E0_minus_Eelec_plus_ZPE_kJmol>  (2) 
0.0

>  <rxn>  (2) 
rxn_898

>  <species_type>  (2) 
p0

>  <species_folder>  (2) 
rxn_898_SCC=S

>  <frequencies_cm1_list>  (2) 
[80.75574736319999, 266.2330208564, 305.26496541528, 376.90135627352, 683.70452640048, 787.8972946608399, 844.3027120793199, 953.5015126379599, 1032.3482380822, 1160.69906069832, 1182.2888625443998, 1236.400706866, 1388.44949582144, 1449.3115867126, 2698.0591331839596, 3041.5869408022795, 3077.6798156442, 3121.4774480151596]

>  <E0_kJmol>  (2) 
-2.29716e+06

>  <H298_kJmol>  (2) 
-2.29715e+06

$$$$

     RDKit          3D

 15 13  0  0  0  0  0  0  0  0999 V2000
   -1.2879    1.5618   -0.9482 S   0  0  0  0  0  0  0  0  0  1  0  0
   -0.7371    0.5195    0.3918 C   0  0  0  0  0  0  0  0  0  2  0  0
    0.6775    0.4756    0.7474 C   0  0  0  0  0  0  0  0  0  3  0  0
    1.9448    0.9521   -0.1419 S   0  0  0  0  0  0  0  0  0  4  0  0
   -0.0688    1.6787   -1.5060 H   0  0  0  0  0  0  0  0  0  5  0  0
   -1.3788    0.6542    1.2619 H   0  0  0  0  0  0  0  0  0  6  0  0
    0.8597   -0.0061    1.7087 H   0  0  0  0  0  0  0  0  0  7  0  0
   -0.3437   -2.0839   -1.6626 C   0  0  0  0  0  0  0  0  0  8  0  0
   -1.3174   -2.0099   -0.5354 C   0  0  0  0  0  3  0  0  0  9  0  0
   -0.4648   -1.2374   -2.3411 H   0  0  0  0  0  0  0  0  0 10  0  0
    0.6867   -2.0938   -1.3041 H   0  0  0  0  0  0  0  0  0 11  0  0
   -0.4950   -2.9973   -2.2500 H   0  0  0  0  0  0  0  0  0 12  0  0
   -0.9836   -0.6446    0.0758 H   0  0  0  0  0  0  0  0  0 13  0  0
   -1.1586   -2.6639    0.3171 H   0  0  0  0  0  0  0  0  0 14  0  0
   -2.3599   -1.8356   -0.7836 H   0  0  0  0  0  0  0  0  0 15  0  0
  1  2  1  0
  1  5  1  0
  2 13  1  0
  2  6  1  0
  2  3  1  0
  3  7  1  0
  3  4  1  0
  8  9  1  0
  8 12  1  0
  8 11  1  0
  8 10  1  0
  9 15  1  0
  9 14  1  0
M  RAD  1   9   2
M  END
>  <rmg_smiles>  (3) 
[S][CH]CS.[CH2]C

>  <rmg_adjacency_list>  (3) 
multiplicity 2
1  S u0 p2 c0 {3,S} {15,S}
2  S u0 p2 c0 {5,S}
3  C u0 p0 c0 {1,S} {5,S} {7,S} {8,S}
4  C u0 p0 c0 {6,S} {9,S} {10,S} {11,S}
5  C u0 p0 c0 {2,S} {3,S} {12,S}
6  C u1 p0 c0 {4,S} {13,S} {14,S}
7  H u0 p0 c0 {3,S}
8  H u0 p0 c0 {3,S}
9  H u0 p0 c0 {4,S}
10 H u0 p0 c0 {4,S}
11 H u0 p0 c0 {4,S}
12 H u0 p0 c0 {5,S}
13 H u0 p0 c0 {6,S}
14 H u0 p0 c0 {6,S}
15 H u0 p0 c0 {1,S}


>  <multiplicity>  (3) 
2

>  <reaction>  (3) 
rxn_898

>  <type>  (3) 
ts

>  <role_mapnums>  (3) 
{"*2": 13, "*1": 2, "*3": 9, "*0": 3, "*4": 8}

>  <role_mapidx>  (3) 
{"*2": 12, "*1": 1, "*3": 8, "*0": 2, "*4": 7}

>  <ordered_mapped_smiles>  (3) 
[S:1]([C:2]([CH:3]([SH:4])[H:7])([H:6])[H:13])[H:5].[C:8]([C:9]([H:14])[H:15])([H:10])([H:11])[H:12]

>  <mol_properties>  (3) 
{"1": {"label": "*1", "atom_type": "Cs"}, "2": {"label": "*0", "atom_type": "Cs"}, "7": {"label": "*4", "atom_type": "Cs"}, "8": {"label": "*3", "atom_type": "Cs"}, "12": {"label": "*2", "atom_type": "H0"}}

>  <level_of_theory>  (3) 
wb97xd/def2tzvp

>  <lot_method>  (3) 
wb97xd

>  <lot_basis>  (3) 
def2tzvp

>  <spin_multiplicity>  (3) 
2.0

>  <optical_isomers>  (3) 
2.0

>  <modes>  (3) 
IdealGasTranslation(mass=(121.015, 'amu')),         NonlinearRotor(             inertia = ([237.858, 341.074, 470.137

>  <frequency_value>  (3) 
-1223.06

>  <frequency_units>  (3) 
cm^-1

>  <frequency_list>  (3) 
unknown

>  <arkane_path>  (3) 
/home/calvin/Dropbox/PersonalFolders/Calvin/HAb_Converged/rxn_898/output/rxns/TS0/arkane/output.py

>  <path_exists>  (3) 
True

>  <E0_value>  (3) 
-2504830.0

>  <E0_units>  (3) 
kJ/mol

>  <thermo_class>  (3) 
unknown

>  <Cp0_value>  (3) 
unknown

>  <Cp0_units>  (3) 
unknown

>  <CpInf_value>  (3) 
unknown

>  <CpInf_units>  (3) 
unknown

>  <Tmin_value>  (3) 
unknown

>  <Tmin_units>  (3) 
unknown

>  <Tmax_value>  (3) 
unknown

>  <Tmax_units>  (3) 
unknown

>  <polynomials>  (3) 
unknown

>  <H298_value>  (3) 
unknown

>  <H298_units>  (3) 
unknown

>  <S298_value>  (3) 
unknown

>  <S298_units>  (3) 
unknown

>  <Cp_T_value_list>  (3) 
unknown

>  <Cp_T_units>  (3) 
unknown

>  <T_list>  (3) 
unknown

>  <T_units>  (3) 
unknown

>  <yaml_path>  (3) 
unknown

>  <frequencies_cm1>  (3) 
unknown

>  <ZPE_kJmol>  (3) 
unknown

>  <E_elec_kJmol>  (3) 
unknown

>  <E0_minus_Eelec_plus_ZPE_kJmol>  (3) 
unknown

>  <rxn>  (3) 
unknown

>  <species_type>  (3) 
unknown

>  <species_folder>  (3) 
unknown

>  <frequencies_cm1_list>  (3) 
[]

>  <ts_imag_freq_cm1>  (3) 
-1237.911

>  <ts_freq_out_path>  (3) 
/home/calvin/Dropbox/PersonalFolders/Calvin/HAb_Converged/rxn_898/output/rxns/TS0/geometry/freq.out

>  <E0_kJmol>  (3) 
-2.50483e+06

>  <H298_kJmol>  (3) 
unknown

$$$$

     RDKit          3D

  7  6  0  0  0  0  0  0  0  0999 V2000
   -0.6201    0.0189   -0.0017 C   0  0  0  0  0  0  0  0  0  1  0  0
    0.8589   -0.0553    0.0500 C   0  0  0  0  0  3  0  0  0  2  0  0
   -1.0738   -0.9730   -0.0559 H   0  0  0  0  0  0  0  0  0  3  0  0
   -0.9680    0.5706   -0.8872 H   0  0  0  0  0  0  0  0  0  4  0  0
   -1.0303    0.5369    0.8678 H   0  0  0  0  0  0  0  0  0  5  0  0
    1.3939   -0.8386   -0.4695 H   0  0  0  0  0  0  0  0  0  6  0  0
    1.4394    0.7404    0.4965 H   0  0  0  0  0  0  0  0  0  7  0  0
  1  5  1  0
  1  4  1  0
  1  3  1  0
  1  2  1  0
  2  7  1  0
  2  6  1  0
M  RAD  1   2   2
M  END
>  <rmg_smiles>  (4) 
C[CH2]

>  <rmg_adjacency_list>  (4) 
multiplicity 2
1 C u0 p0 c0 {2,S} {3,S} {4,S} {5,S}
2 C u1 p0 c0 {1,S} {6,S} {7,S}
3 H u0 p0 c0 {1,S}
4 H u0 p0 c0 {1,S}
5 H u0 p0 c0 {1,S}
6 H u0 p0 c0 {2,S}
7 H u0 p0 c0 {2,S}


>  <multiplicity>  (4) 
2

>  <reaction>  (4) 
rxn_898

>  <type>  (4) 
r1

>  <role_mapnums>  (4) 
{}

>  <role_mapidx>  (4) 
{}

>  <ordered_mapped_smiles>  (4) 
[C:1]([C:2]([H:6])[H:7])([H:3])([H:4])[H:5]

>  <level_of_theory>  (4) 
wb97xd/def2tzvp

>  <lot_method>  (4) 
wb97xd

>  <lot_basis>  (4) 
def2tzvp

>  <spin_multiplicity>  (4) 
2.0

>  <optical_isomers>  (4) 
1.0

>  <modes>  (4) 
IdealGasTranslation(mass=(29.0391, 'amu')),         NonlinearRotor(             inertia = ([4.86051, 22.0602, 23.8144

>  <frequency_value>  (4) 
unknown

>  <frequency_units>  (4) 
unknown

>  <frequency_list>  (4) 
unknown

>  <arkane_path>  (4) 
/home/calvin/Dropbox/PersonalFolders/Calvin/HAb_Converged/rxn_898/output/Species/rxn_898_C[CH2]/arkane/output.py

>  <path_exists>  (4) 
True

>  <E0_value>  (4) 
-207679.78865121285

>  <E0_units>  (4) 
kJ/mol

>  <thermo_class>  (4) 
NASA

>  <Cp0_value>  (4) 
33.257888

>  <Cp0_units>  (4) 
J/(mol*K)

>  <CpInf_value>  (4) 
157.97496800000002

>  <CpInf_units>  (4) 
J/(mol*K)

>  <Tmin_value>  (4) 
10.0

>  <Tmin_units>  (4) 
K

>  <Tmax_value>  (4) 
3000.0

>  <Tmax_units>  (4) 
K

>  <polynomials>  (4) 
[{"name": "polynomial1", "class": "NASAPolynomial", "Tmin_value": 10.0, "Tmin_units": "K", "Tmax_value": 487.87976470861213, "Tmax_units": "K", "coeffs": [3.9121871353579607, 0.009303342355112522, -1.0632548237956822e-05, 4.8831908404358495e-08, -4.7450160133634566e-11, -24978109.370781355, 5.932423398139755]}, {"name": "polynomial2", "class": "NASAPolynomial", "Tmin_value": 487.87976470861213, "Tmin_units": "K", "Tmax_value": 3000.0, "Tmax_units": "K", "coeffs": [1.255601804674027, 0.02015925973571526, -1.042095542288469e-05, 2.645655029251924e-09, -2.6467461504495006e-13, -24977720.132981308, 18.174806831505954]}]

>  <H298_value>  (4) 
-49633.563072244775

>  <H298_units>  (4) 
kcal/mol

>  <S298_value>  (4) 
61.32124798502571

>  <S298_units>  (4) 
cal/(mol*K)

>  <Cp_T_value_list>  (4) 
[13.275286080102546, 15.585331501205383, 17.97260864331377, 20.143861899983392, 23.766518336877798, 26.578661465366384, 31.07297867985595, 33.426295758137194, 34.588101279891]

>  <Cp_T_units>  (4) 
cal/(mol*K)

>  <T_list>  (4) 
[300.0, 400.0, 500.0, 600.0, 800.0, 1000.0, 1500.0, 2000.0, 2400.0]

>  <T_units>  (4) 
K

>  <yaml_path>  (4) 
/home/calvin/Dropbox/PersonalFolders/Calvin/HAb_Converged/rxn_898/output/Species/rxn_898_C[CH2]/rxn_898_CCH2.yml

>  <frequencies_cm1>  (4) 
[107.07690209476, 475.05117745227994, 809.2398850354, 971.27327064612, 1064.95268438156, 1183.6279246817999, 1386.8220203006, 1452.9442219468801, 1466.90480310244, 1470.74344789632, 2948.7315653052397, 3035.3173832051198, 3081.4978594821196, 3128.7358514984, 3230.1062887922394]

>  <ZPE_kJmol>  (4) 
154.3962225328414

>  <E_elec_kJmol>  (4) 
-207834.1848737457

>  <E0_minus_Eelec_plus_ZPE_kJmol>  (4) 
0.0

>  <rxn>  (4) 
rxn_898

>  <species_type>  (4) 
p1

>  <species_folder>  (4) 
rxn_898_C[CH2]

>  <frequencies_cm1_list>  (4) 
[107.07690209476, 475.05117745227994, 809.2398850354, 971.27327064612, 1064.95268438156, 1183.6279246817999, 1386.8220203006, 1452.9442219468801, 1466.90480310244, 1470.74344789632, 2948.7315653052397, 3035.3173832051198, 3081.4978594821196, 3128.7358514984, 3230.1062887922394]

>  <E0_kJmol>  (4) 
-207680

>  <H298_kJmol>  (4) 
-207667

$$$$

     RDKit          3D

  7  6  0  0  0  0  0  0  0  0999 V2000
    1.8092   -0.3013   -0.2242 S   0  0  0  0  0  0  0  0  0  1  0  0
    0.1552   -0.6967   -0.1137 C   0  0  0  0  0  0  0  0  0  2  0  0
   -0.8921    0.1788    0.1148 C   0  0  0  0  0  0  0  0  0  3  0  0
   -0.7548    1.8245    0.3328 S   0  0  0  0  0  1  0  0  0  4  0  0
    1.6168    1.0210   -0.0187 H   0  0  0  0  0  0  0  0  0  5  0  0
   -0.0550   -1.7522   -0.2412 H   0  0  0  0  0  0  0  0  0  6  0  0
   -1.8791   -0.2740    0.1502 H   0  0  0  0  0  0  0  0  0  7  0  0
  1  2  1  0
  1  5  1  0
  2  6  1  0
  2  3  1  0
  3  7  1  0
  3  4  1  0
M  RAD  1   4   2
M  END
>  <rmg_smiles>  (5) 
[S][CH][CH]S

>  <rmg_adjacency_list>  (5) 
multiplicity 2
1 S u0 p2 c0 {3,S} {7,S}
2 S u1 p2 c0 {4,S}
3 C u0 p0 c0 {1,S} {4,S} {5,S}
4 C u0 p0 c0 {2,S} {3,S} {6,S}
5 H u0 p0 c0 {3,S}
6 H u0 p0 c0 {4,S}
7 H u0 p0 c0 {1,S}


>  <multiplicity>  (5) 
2

>  <reaction>  (5) 
rxn_898

>  <type>  (5) 
r2

>  <role_mapnums>  (5) 
{}

>  <role_mapidx>  (5) 
{}

>  <ordered_mapped_smiles>  (5) 
[S:1]([CH:2]([CH:3]([S:4])[H:7])[H:6])[H:5]

>  <level_of_theory>  (5) 
wb97xd/def2tzvp

>  <lot_method>  (5) 
wb97xd

>  <lot_basis>  (5) 
def2tzvp

>  <spin_multiplicity>  (5) 
2.0

>  <optical_isomers>  (5) 
1.0

>  <modes>  (5) 
IdealGasTranslation(mass=(90.9676, 'amu')),         NonlinearRotor(             inertia = ([41.4097, 197.136, 238.545

>  <frequency_value>  (5) 
unknown

>  <frequency_units>  (5) 
unknown

>  <frequency_list>  (5) 
unknown

>  <arkane_path>  (5) 
/home/calvin/Dropbox/PersonalFolders/Calvin/HAb_Converged/rxn_898/output/Species/rxn_898_S[CH]C=S/arkane/output.py

>  <path_exists>  (5) 
True

>  <E0_value>  (5) 
-2295558.499177116

>  <E0_units>  (5) 
kJ/mol

>  <thermo_class>  (5) 
NASA

>  <Cp0_value>  (5) 
33.257888

>  <Cp0_units>  (5) 
J/(mol*K)

>  <CpInf_value>  (5) 
157.97496800000002

>  <CpInf_units>  (5) 
J/(mol*K)

>  <Tmin_value>  (5) 
10.0

>  <Tmin_units>  (5) 
K

>  <Tmax_value>  (5) 
3000.0

>  <Tmax_units>  (5) 
K

>  <polynomials>  (5) 
[{"name": "polynomial1", "class": "NASAPolynomial", "Tmin_value": 10.0, "Tmin_units": "K", "Tmax_value": 554.7124392285518, "Tmax_units": "K", "coeffs": [3.9306502353930965, 0.004133922870558618, 7.817124796321941e-05, -1.5845467344039594e-07, 9.591038319478953e-11, -276091912.08472174, 10.601050984557745]}, {"name": "polynomial2", "class": "NASAPolynomial", "Tmin_value": 554.7124392285518, "Tmin_units": "K", "Tmax_value": 3000.0, "Tmax_units": "K", "coeffs": [3.4410377237542638, 0.02325799354743955, -1.5708672851982145e-05, 5.0491053726302925e-09, -6.172994321373326e-13, -276092097.67652106, 10.512139558674505]}]

>  <H298_value>  (5) 
-548648.1110275815

>  <H298_units>  (5) 
kcal/mol

>  <S298_value>  (5) 
72.51024917341623

>  <S298_units>  (5) 
cal/(mol*K)

>  <Cp_T_value_list>  (5) 
[17.298309340361524, 20.678524612659682, 23.305934853423146, 25.33949880526343, 28.469074134584886, 30.647025274417317, 33.58213330177607, 35.051114287355276, 35.96165263240023]

>  <Cp_T_units>  (5) 
cal/(mol*K)

>  <T_list>  (5) 
[300.0, 400.0, 500.0, 600.0, 800.0, 1000.0, 1500.0, 2000.0, 2400.0]

>  <T_units>  (5) 
K

>  <yaml_path>  (5) 
/home/calvin/Dropbox/PersonalFolders/Calvin/HAb_Converged/rxn_898/output/Species/rxn_898_S[CH]C=S/rxn_898_SCHC=S.yml

>  <frequencies_cm1>  (5) 
[200.51597134399998, 323.99123438291997, 464.0365329989999, 549.3038897174399, 726.3828401642799, 743.81811589176, 881.4256347192398, 918.3837497114799, 977.1651440506799, 1183.8339342414001, 1348.94372927548, 1411.0968134068, 2564.15291944396, 3116.1761353481197, 3166.7652162005597]

>  <ZPE_kJmol>  (5) 
111.10913739733977

>  <E_elec_kJmol>  (5) 
-2295669.608314513

>  <E0_minus_Eelec_plus_ZPE_kJmol>  (5) 
0.0

>  <rxn>  (5) 
rxn_898

>  <species_type>  (5) 
r0

>  <species_folder>  (5) 
rxn_898_S[CH]C=S

>  <frequencies_cm1_list>  (5) 
[200.51597134399998, 323.99123438291997, 464.0365329989999, 549.3038897174399, 726.3828401642799, 743.81811589176, 881.4256347192398, 918.3837497114799, 977.1651440506799, 1183.8339342414001, 1348.94372927548, 1411.0968134068, 2564.15291944396, 3116.1761353481197, 3166.7652162005597]

>  <E0_kJmol>  (5) 
-2.29556e+06

>  <H298_kJmol>  (5) 
-2.29554e+06

$$$$
