
     RDKit          3D

  7  6  0  0  0  0  0  0  0  0999 V2000
    0.8511    0.0318   -1.0461 C   0  0  0  0  0  2  0  0  0  1  0  0
    0.0777   -0.0347   -0.1252 C   0  0  0  0  0  2  0  0  0  2  0  0
   -0.8039   -0.0387    0.9798 C   0  0  0  0  0  0  0  0  0  3  0  0
    1.5283    0.0653   -1.8651 H   0  0  0  0  0  0  0  0  0  4  0  0
   -0.6272    0.9016    1.4951 H   0  0  0  0  0  0  0  0  0  5  0  0
   -0.5741   -0.7528    1.7661 H   0  0  0  0  0  0  0  0  0  6  0  0
   -1.8624    0.0238    0.7419 H   0  0  0  0  0  0  0  0  0  7  0  0
  1  4  1  0
  1  2  1  0
  2  3  1  0
  3  6  1  0
  3  7  1  0
  3  5  1  0
M  RAD  2   1   3   2   3
M  END
>  <rmg_smiles>  (1) 
[CH][C]C

>  <rmg_adjacency_list>  (1) 
1 C u0 p0 c0 {2,S} {4,S} {5,S} {6,S}
2 C u0 p1 c0 {1,S} {3,S}
3 C u0 p1 c0 {2,S} {7,S}
4 H u0 p0 c0 {1,S}
5 H u0 p0 c0 {1,S}
6 H u0 p0 c0 {1,S}
7 H u0 p0 c0 {3,S}


>  <multiplicity>  (1) 
1

>  <reaction>  (1) 
rxn_1245

>  <type>  (1) 
r1h

>  <role_mapnums>  (1) 
{"r1h_a": 3, "r1h_h": 5}

>  <role_mapidx>  (1) 
{"r1h_a": 2, "r1h_h": 4}

>  <ordered_mapped_smiles>  (1) 
[C:1]([C:2][C:3]([H:5])([H:6])[H:7])[H:4]

>  <mol_properties>  (1) 
{"2": {"label": "donator", "atom_type": "Cs"}, "4": {"label": "d_hydrogen", "atom_type": "H0"}}

>  <level_of_theory>  (1) 
wb97xd/def2tzvp

>  <lot_method>  (1) 
wb97xd

>  <lot_basis>  (1) 
def2tzvp

>  <spin_multiplicity>  (1) 
1.0

>  <optical_isomers>  (1) 
1.0

>  <modes>  (1) 
IdealGasTranslation(mass=(40.0313, 'amu')),         NonlinearRotor(             inertia = ([3.14896, 58.5627, 58.5628

>  <frequency_value>  (1) 
unknown

>  <frequency_units>  (1) 
unknown

>  <frequency_list>  (1) 
unknown

>  <arkane_path>  (1) 
/home/calvin/Dropbox/PersonalFolders/Calvin/HAb_Converged/rxn_1245/output/Species/rxn_1245_CtCC/arkane/output.py

>  <path_exists>  (1) 
True

>  <E0_value>  (1) 
-306134.23771519226

>  <E0_units>  (1) 
kJ/mol

>  <thermo_class>  (1) 
NASA

>  <Cp0_value>  (1) 
33.257888

>  <Cp0_units>  (1) 
J/(mol*K)

>  <CpInf_value>  (1) 
157.97496800000002

>  <CpInf_units>  (1) 
J/(mol*K)

>  <Tmin_value>  (1) 
10.0

>  <Tmin_units>  (1) 
K

>  <Tmax_value>  (1) 
3000.0

>  <Tmax_units>  (1) 
K

>  <polynomials>  (1) 
[{"name": "polynomial1", "class": "NASAPolynomial", "Tmin_value": 10.0, "Tmin_units": "K", "Tmax_value": 432.7570457536586, "Tmax_units": "K", "coeffs": [3.9797872721783007, 0.0012495811779551272, 5.6294196303513694e-05, -1.0182025216581548e-07, 6.043505350989284e-11, -36819443.321551986, 4.877022759632036]}, {"name": "polynomial2", "class": "NASAPolynomial", "Tmin_value": 432.7570457536586, "Tmin_units": "K", "Tmax_value": 3000.0, "Tmax_units": "K", "coeffs": [1.8482488679261548, 0.020955787311649748, -1.2025217015703147e-05, 3.449280939574018e-09, -3.914023780269935e-13, -36819258.87384146, 13.374670545299223]}]

>  <H298_value>  (1) 
-73164.72574977479

>  <H298_units>  (1) 
kcal/mol

>  <S298_value>  (1) 
58.90709306772092

>  <S298_units>  (1) 
cal/(mol*K)

>  <Cp_T_value_list>  (1) 
[14.231411982223385, 16.92569828262598, 19.32863505161705, 21.43592113918368, 24.884700514699873, 27.496375671717598, 31.566855118352027, 33.76415845868588, 34.923080757091356]

>  <Cp_T_units>  (1) 
cal/(mol*K)

>  <T_list>  (1) 
[300.0, 400.0, 500.0, 600.0, 800.0, 1000.0, 1500.0, 2000.0, 2400.0]

>  <T_units>  (1) 
K

>  <yaml_path>  (1) 
/home/calvin/Dropbox/PersonalFolders/Calvin/HAb_Converged/rxn_1245/output/Species/rxn_1245_CtCC/rxn_1245_CtCC.yml

>  <frequencies_cm1>  (1) 
[351.89179573808, 352.26261294536, 684.0272747105199, 684.34315603524, 939.24565111364, 1048.18350623012, 1048.35518086312, 1402.57488462468, 1465.46960317056, 1465.7648835393202, 2230.0054137727598, 3022.8812727906, 3095.33483490192, 3095.7125190945194, 3438.9862482559997]

>  <ZPE_kJmol>  (1) 
145.49608455161717

>  <E_elec_kJmol>  (1) 
-306279.7337997439

>  <E0_minus_Eelec_plus_ZPE_kJmol>  (1) 
0.0

>  <rxn>  (1) 
rxn_1245

>  <species_type>  (1) 
r0

>  <species_folder>  (1) 
rxn_1245_CtCC

>  <frequencies_cm1_list>  (1) 
[351.89179573808, 352.26261294536, 684.0272747105199, 684.34315603524, 939.24565111364, 1048.18350623012, 1048.35518086312, 1402.57488462468, 1465.46960317056, 1465.7648835393202, 2230.0054137727598, 3022.8812727906, 3095.33483490192, 3095.7125190945194, 3438.9862482559997]

>  <E0_kJmol>  (1) 
-306134

>  <H298_kJmol>  (1) 
-306121

$$$$

     RDKit          3D

 13 12  0  0  0  0  0  0  0  0999 V2000
   -0.2669   -1.2184   -0.7577 H   0  0  0  0  0  0  0  0  0  1  0  0
   -0.3476    0.6721   -1.5234 C   0  0  0  0  0  0  0  0  0  2  0  0
   -0.0844   -0.2276   -0.3415 C   0  0  0  0  0  0  0  0  0  3  0  0
    1.2881   -0.3099    0.1715 C   0  0  0  0  0  0  0  0  0  4  0  0
    2.3629    0.2294   -0.4020 C   0  0  0  0  0  0  0  0  0  5  0  0
   -1.3511   -0.2071    0.9433 S   0  0  0  0  0  0  0  0  0  6  0  0
   -0.1549    1.7181   -1.2683 H   0  0  0  0  0  0  0  0  0  7  0  0
    0.2949    0.3982   -2.3632 H   0  0  0  0  0  0  0  0  0  8  0  0
   -1.3850    0.5865   -1.8435 H   0  0  0  0  0  0  0  0  0  9  0  0
    1.4088   -0.8897    1.0811 H   0  0  0  0  0  0  0  0  0 10  0  0
    3.3458    0.0944    0.0299 H   0  0  0  0  0  0  0  0  0 11  0  0
    2.3019    0.8195   -1.3077 H   0  0  0  0  0  0  0  0  0 12  0  0
   -0.9718    0.9339    1.5397 H   0  0  0  0  0  0  0  0  0 13  0  0
  1  3  1  0
  2  9  1  0
  2  8  1  0
  2  7  1  0
  2  3  1  0
  3  4  1  0
  3  6  1  0
  4  5  1  0
  4 10  1  0
  5 11  1  0
  5 12  1  0
  6 13  1  0
M  END
>  <rmg_smiles>  (2) 
[CH2][CH]C(S)C

>  <rmg_adjacency_list>  (2) 
1  S u0 p2 c0 {2,S} {13,S}
2  C u0 p0 c0 {1,S} {3,S} {4,S} {6,S}
3  C u0 p0 c0 {2,S} {7,S} {8,S} {9,S}
4  C u0 p0 c0 {2,S} {5,S} {10,S}
5  C u0 p0 c0 {4,S} {11,S} {12,S}
6  H u0 p0 c0 {2,S}
7  H u0 p0 c0 {3,S}
8  H u0 p0 c0 {3,S}
9  H u0 p0 c0 {3,S}
10 H u0 p0 c0 {4,S}
11 H u0 p0 c0 {5,S}
12 H u0 p0 c0 {5,S}
13 H u0 p0 c0 {1,S}


>  <multiplicity>  (2) 
1

>  <reaction>  (2) 
rxn_1245

>  <type>  (2) 
r2h

>  <role_mapnums>  (2) 
{"r2h_a": 3, "r2h_h": 1}

>  <role_mapidx>  (2) 
{"r2h_a": 2, "r2h_h": 0}

>  <ordered_mapped_smiles>  (2) 
[H:1][C:3]([C:2]([H:7])([H:8])[H:9])([CH:4]([CH:5]([H:11])[H:12])[H:10])[S:6][H:13]

>  <mol_properties>  (2) 
{"0": {"label": "a_hydrogen", "atom_type": "H0"}, "2": {"label": "acceptor", "atom_type": "Cs"}}

>  <level_of_theory>  (2) 
wb97xd/def2tzvp

>  <lot_method>  (2) 
wb97xd

>  <lot_basis>  (2) 
def2tzvp

>  <spin_multiplicity>  (2) 
1.0

>  <optical_isomers>  (2) 
2.0

>  <modes>  (2) 
IdealGasTranslation(mass=(88.0347, 'amu')),         NonlinearRotor(             inertia = ([80.9896, 186.939, 240.36

>  <frequency_value>  (2) 
unknown

>  <frequency_units>  (2) 
unknown

>  <frequency_list>  (2) 
unknown

>  <arkane_path>  (2) 
/home/calvin/Dropbox/PersonalFolders/Calvin/HAb_Converged/rxn_1245/output/Species/rxn_1245_CC[C=C]S/arkane/output.py

>  <path_exists>  (2) 
True

>  <E0_value>  (2) 
-1457993.2203154718

>  <E0_units>  (2) 
kJ/mol

>  <thermo_class>  (2) 
NASA

>  <Cp0_value>  (2) 
33.257888

>  <Cp0_units>  (2) 
J/(mol*K)

>  <CpInf_value>  (2) 
307.635464

>  <CpInf_units>  (2) 
J/(mol*K)

>  <Tmin_value>  (2) 
10.0

>  <Tmin_units>  (2) 
K

>  <Tmax_value>  (2) 
3000.0

>  <Tmax_units>  (2) 
K

>  <polynomials>  (2) 
[{"name": "polynomial1", "class": "NASAPolynomial", "Tmin_value": 10.0, "Tmin_units": "K", "Tmax_value": 295.7227912497842, "Tmax_units": "K", "coeffs": [3.859964156764265, 0.01144860889918731, 0.0001493029899500801, -3.9039348716992893e-07, 3.358044146618703e-10, -175356080.2071909, 11.069034930037732]}, {"name": "polynomial2", "class": "NASAPolynomial", "Tmin_value": 295.7227912497842, "Tmin_units": "K", "Tmax_value": 3000.0, "Tmax_units": "K", "coeffs": [1.2850875538289555, 0.046276930240981576, -2.7357704114677986e-05, 7.864783684789184e-09, -8.783951656354052e-13, -175355927.91757682, 20.354264054524194]}]

>  <H298_value>  (2) 
-348464.0452129305

>  <H298_units>  (2) 
kcal/mol

>  <S298_value>  (2) 
80.12210228638097

>  <S298_units>  (2) 
cal/(mol*K)

>  <Cp_T_value_list>  (2) 
[25.657235309186788, 31.595562401016796, 36.787812405776, 41.308907051164105, 48.616370543623205, 54.03354017598102, 62.08513628914328, 66.11849050718591, 68.25869648313012]

>  <Cp_T_units>  (2) 
cal/(mol*K)

>  <T_list>  (2) 
[300.0, 400.0, 500.0, 600.0, 800.0, 1000.0, 1500.0, 2000.0, 2400.0]

>  <T_units>  (2) 
K

>  <yaml_path>  (2) 
/home/calvin/Dropbox/PersonalFolders/Calvin/HAb_Converged/rxn_1245/output/Species/rxn_1245_CC[C=C]S/rxn_1245_CCC=CS.yml

>  <frequencies_cm1>  (2) 
[112.52242145352, 239.03975898919998, 283.2974793766, 286.77904093384, 324.26591379572, 340.0531130464, 516.9535218749198, 611.3059001717199, 707.99305347732, 859.67102522548, 891.12181799108, 956.0216962503999, 997.40214978872, 1034.16112220668, 1059.6582386998398, 1092.5304974266799, 1167.99179910816, 1255.42912318772, 1324.7582069784398, 1338.95226563488, 1400.5765918965599, 1439.5192656462798, 1479.7323316801999, 1488.1993245797596, 1707.24242231712, 2690.2788388163995, 3016.12415923572, 3026.0744209644, 3087.1562553858, 3110.68941407744, 3126.04399325296, 3140.3273227185596, 3212.2246590189598]

>  <ZPE_kJmol>  (2) 
283.0610419775438

>  <E_elec_kJmol>  (2) 
-1458276.2813574492

>  <E0_minus_Eelec_plus_ZPE_kJmol>  (2) 
0.0

>  <rxn>  (2) 
rxn_1245

>  <species_type>  (2) 
p0

>  <species_folder>  (2) 
rxn_1245_CC[C=C]S

>  <frequencies_cm1_list>  (2) 
[112.52242145352, 239.03975898919998, 283.2974793766, 286.77904093384, 324.26591379572, 340.0531130464, 516.9535218749198, 611.3059001717199, 707.99305347732, 859.67102522548, 891.12181799108, 956.0216962503999, 997.40214978872, 1034.16112220668, 1059.6582386998398, 1092.5304974266799, 1167.99179910816, 1255.42912318772, 1324.7582069784398, 1338.95226563488, 1400.5765918965599, 1439.5192656462798, 1479.7323316801999, 1488.1993245797596, 1707.24242231712, 2690.2788388163995, 3016.12415923572, 3026.0744209644, 3087.1562553858, 3110.68941407744, 3126.04399325296, 3140.3273227185596, 3212.2246590189598]

>  <E0_kJmol>  (2) 
-1.45799e+06

>  <H298_kJmol>  (2) 
-1.45797e+06

$$$$

     RDKit          3D

 19 17  0  0  0  0  0  0  0  0999 V2000
    1.1418   -1.7600   -2.6222 C   0  0  0  0  0  0  0  0  0  1  0  0
    0.3685   -1.8265   -1.7012 C   0  0  0  0  0  0  0  0  0  2  0  0
   -0.5131   -1.8305   -0.5962 C   0  0  0  0  0  3  0  0  0  3  0  0
    1.8191   -1.7264   -3.4412 H   0  0  0  0  0  0  0  0  0  4  0  0
   -0.2879   -0.6320    0.0604 H   0  0  0  0  0  0  0  0  0  5  0  0
   -0.2834   -2.5445    0.1900 H   0  0  0  0  0  0  0  0  0  6  0  0
   -1.5716   -1.7680   -0.8342 H   0  0  0  0  0  0  0  0  0  7  0  0
   -0.3307    1.4640   -0.6190 C   0  0  0  0  0  0  0  0  0  8  0  0
   -0.0676    0.5642    0.5629 C   0  0  0  0  0  0  0  0  0  9  0  0
    1.3049    0.4819    1.0759 C   0  0  0  0  0  0  0  0  0 10  0  0
    2.3797    1.0212    0.5024 C   0  0  0  0  0  0  0  0  0 11  0  0
   -1.3343    0.5847    1.8478 S   0  0  0  0  0  0  0  0  0 12  0  0
   -0.1381    2.5099   -0.3639 H   0  0  0  0  0  0  0  0  0 13  0  0
    0.3118    1.1901   -1.4588 H   0  0  0  0  0  0  0  0  0 14  0  0
   -1.3681    1.3784   -0.9391 H   0  0  0  0  0  0  0  0  0 15  0  0
    1.4256   -0.0979    1.9855 H   0  0  0  0  0  0  0  0  0 16  0  0
    3.3626    0.8862    0.9343 H   0  0  0  0  0  0  0  0  0 17  0  0
    2.3188    1.6113   -0.4033 H   0  0  0  0  0  0  0  0  0 18  0  0
   -0.9550    1.7257    2.4441 H   0  0  0  0  0  0  0  0  0 19  0  0
  1  4  1  0
  1  2  1  0
  2  3  1  0
  3  6  1  0
  3  7  1  0
  5  9  1  0
  8  9  1  0
  8 14  1  0
  8 13  1  0
  8 15  1  0
  9 12  1  0
  9 10  1  0
 10 16  1  0
 10 11  1  0
 11 18  1  0
 11 17  1  0
 12 19  1  0
M  RAD  1   3   2
M  END
>  <rmg_smiles>  (3) 
[CH2][CH]C(S)C.[CH][C][CH2]

>  <rmg_adjacency_list>  (3) 
multiplicity 2
1  S u0 p2 c0 {2,S} {18,S}
2  C u0 p0 c0 {1,S} {3,S} {4,S} {9,S}
3  C u0 p0 c0 {2,S} {10,S} {11,S} {12,S}
4  C u0 p0 c0 {2,S} {5,S} {13,S}
5  C u0 p0 c0 {4,S} {14,S} {15,S}
6  C u1 p0 c0 {7,S} {16,S} {17,S}
7  C u0 p1 c0 {6,S} {8,S}
8  C u0 p1 c0 {7,S} {19,S}
9  H u0 p0 c0 {2,S}
10 H u0 p0 c0 {3,S}
11 H u0 p0 c0 {3,S}
12 H u0 p0 c0 {3,S}
13 H u0 p0 c0 {4,S}
14 H u0 p0 c0 {5,S}
15 H u0 p0 c0 {5,S}
16 H u0 p0 c0 {6,S}
17 H u0 p0 c0 {6,S}
18 H u0 p0 c0 {1,S}
19 H u0 p0 c0 {8,S}


>  <multiplicity>  (3) 
2

>  <reaction>  (3) 
rxn_1245

>  <type>  (3) 
ts

>  <role_mapnums>  (3) 
{"*2": 5, "*1": 3, "*3": 9, "*0": 12, "*4": 2}

>  <role_mapidx>  (3) 
{"*2": 4, "*1": 2, "*3": 8, "*0": 11, "*4": 1}

>  <ordered_mapped_smiles>  (3) 
[CH2:1]([CH2:2][C:3]([H:6])[H:7])[H:4].[H:5][C:9]([C:8]([H:13])([H:14])[H:15])([CH:10]([CH:11]([H:17])[H:18])[H:16])[S:12][H:19]

>  <mol_properties>  (3) 
{"1": {"label": "*4", "atom_type": "C2s"}, "2": {"label": "*1", "atom_type": "Cs"}, "4": {"label": "*2", "atom_type": "H0"}, "8": {"label": "*3", "atom_type": "Cs"}, "11": {"label": "*0", "atom_type": "S2s"}}

>  <level_of_theory>  (3) 
wb97xd/def2tzvp

>  <lot_method>  (3) 
wb97xd

>  <lot_basis>  (3) 
def2tzvp

>  <spin_multiplicity>  (3) 
2.0

>  <optical_isomers>  (3) 
2.0

>  <modes>  (3) 
IdealGasTranslation(mass=(127.058, 'amu')),         NonlinearRotor(             inertia = ([250.789, 490.94, 611.395

>  <frequency_value>  (3) 
-1767.49

>  <frequency_units>  (3) 
cm^-1

>  <frequency_list>  (3) 
unknown

>  <arkane_path>  (3) 
/home/calvin/Dropbox/PersonalFolders/Calvin/HAb_Converged/rxn_1245/output/rxns/TS0/arkane/output.py

>  <path_exists>  (3) 
True

>  <E0_value>  (3) 
-1762390.0

>  <E0_units>  (3) 
kJ/mol

>  <thermo_class>  (3) 
unknown

>  <Cp0_value>  (3) 
unknown

>  <Cp0_units>  (3) 
unknown

>  <CpInf_value>  (3) 
unknown

>  <CpInf_units>  (3) 
unknown

>  <Tmin_value>  (3) 
unknown

>  <Tmin_units>  (3) 
unknown

>  <Tmax_value>  (3) 
unknown

>  <Tmax_units>  (3) 
unknown

>  <polynomials>  (3) 
unknown

>  <H298_value>  (3) 
unknown

>  <H298_units>  (3) 
unknown

>  <S298_value>  (3) 
unknown

>  <S298_units>  (3) 
unknown

>  <Cp_T_value_list>  (3) 
unknown

>  <Cp_T_units>  (3) 
unknown

>  <T_list>  (3) 
unknown

>  <T_units>  (3) 
unknown

>  <yaml_path>  (3) 
unknown

>  <frequencies_cm1>  (3) 
unknown

>  <ZPE_kJmol>  (3) 
unknown

>  <E_elec_kJmol>  (3) 
unknown

>  <E0_minus_Eelec_plus_ZPE_kJmol>  (3) 
unknown

>  <rxn>  (3) 
unknown

>  <species_type>  (3) 
unknown

>  <species_folder>  (3) 
unknown

>  <frequencies_cm1_list>  (3) 
[]

>  <ts_imag_freq_cm1>  (3) 
-1788.9577

>  <ts_freq_out_path>  (3) 
/home/calvin/Dropbox/PersonalFolders/Calvin/HAb_Converged/rxn_1245/output/rxns/TS0/geometry/freq.out

>  <E0_kJmol>  (3) 
-1.76239e+06

>  <H298_kJmol>  (3) 
unknown

$$$$

     RDKit          3D

  6  5  0  0  0  0  0  0  0  0999 V2000
    1.4968   -0.0097    0.1113 C   0  0  0  0  0  0  0  0  0  1  0  0
    0.2829   -0.0018    0.0210 C   0  0  0  0  0  0  0  0  0  2  0  0
   -1.0795    0.0070   -0.0803 C   0  0  0  0  0  3  0  0  0  3  0  0
    2.5571   -0.0165    0.1902 H   0  0  0  0  0  0  0  0  0  4  0  0
   -1.6181    0.9389   -0.1832 H   0  0  0  0  0  0  0  0  0  5  0  0
   -1.6393   -0.9179   -0.0591 H   0  0  0  0  0  0  0  0  0  6  0  0
  1  4  1  0
  1  2  1  0
  2  3  1  0
  3  6  1  0
  3  5  1  0
M  RAD  1   3   2
M  END
>  <rmg_smiles>  (4) 
[CH]C[CH2]

>  <rmg_adjacency_list>  (4) 
multiplicity 2
1 C u1 p0 c0 {2,S} {4,S} {5,S}
2 C u0 p1 c0 {1,S} {3,S}
3 C u0 p1 c0 {2,S} {6,S}
4 H u0 p0 c0 {1,S}
5 H u0 p0 c0 {1,S}
6 H u0 p0 c0 {3,S}


>  <multiplicity>  (4) 
2

>  <reaction>  (4) 
rxn_1245

>  <type>  (4) 
r1

>  <role_mapnums>  (4) 
{}

>  <role_mapidx>  (4) 
{}

>  <ordered_mapped_smiles>  (4) 
[CH2:1]([CH2:2][C:3]([H:5])[H:6])[H:4]

>  <level_of_theory>  (4) 
wb97xd/def2tzvp

>  <lot_method>  (4) 
wb97xd

>  <lot_basis>  (4) 
def2tzvp

>  <spin_multiplicity>  (4) 
2.0

>  <optical_isomers>  (4) 
1.0

>  <modes>  (4) 
IdealGasTranslation(mass=(39.0235, 'amu')),         NonlinearRotor(             inertia = ([1.74527, 52.5377, 54.2829

>  <frequency_value>  (4) 
unknown

>  <frequency_units>  (4) 
unknown

>  <frequency_list>  (4) 
unknown

>  <arkane_path>  (4) 
/home/calvin/Dropbox/PersonalFolders/Calvin/HAb_Converged/rxn_1245/output/Species/rxn_1245_CtC[CH2]/arkane/output.py

>  <path_exists>  (4) 
True

>  <E0_value>  (4) 
-304448.46556643327

>  <E0_units>  (4) 
kJ/mol

>  <thermo_class>  (4) 
NASA

>  <Cp0_value>  (4) 
33.257888

>  <Cp0_units>  (4) 
J/(mol*K)

>  <CpInf_value>  (4) 
133.031552

>  <CpInf_units>  (4) 
J/(mol*K)

>  <Tmin_value>  (4) 
10.0

>  <Tmin_units>  (4) 
K

>  <Tmax_value>  (4) 
3000.0

>  <Tmax_units>  (4) 
K

>  <polynomials>  (4) 
[{"name": "polynomial1", "class": "NASAPolynomial", "Tmin_value": 10.0, "Tmin_units": "K", "Tmax_value": 545.4322858033976, "Tmax_units": "K", "coeffs": [3.9499603218219184, 0.003017565134064686, 5.5663880593738125e-05, -1.145891938777454e-07, 7.087527216200762e-11, -36616690.41912999, 5.464661756584002]}, {"name": "polynomial2", "class": "NASAPolynomial", "Tmin_value": 545.4322858033976, "Tmin_units": "K", "Tmax_value": 3000.0, "Tmax_units": "K", "coeffs": [3.789373911177466, 0.015460066047789113, -9.533910331026645e-06, 2.9656464623318287e-09, -3.6191150968379614e-13, -36616840.46347278, 4.606005615672744]}]

>  <H298_value>  (4) 
-72761.72685205255

>  <H298_units>  (4) 
kcal/mol

>  <S298_value>  (4) 
60.54560432912815

>  <S298_units>  (4) 
cal/(mol*K)

>  <Cp_T_value_list>  (4) 
[14.596350865656005, 16.978505208172123, 18.840244425047544, 20.322925848209742, 22.70561515204646, 24.480922661541676, 27.23477345925829, 28.831290583038445, 29.744408163505042]

>  <Cp_T_units>  (4) 
cal/(mol*K)

>  <T_list>  (4) 
[300.0, 400.0, 500.0, 600.0, 800.0, 1000.0, 1500.0, 2000.0, 2400.0]

>  <T_units>  (4) 
K

>  <yaml_path>  (4) 
/home/calvin/Dropbox/PersonalFolders/Calvin/HAb_Converged/rxn_1245/output/Species/rxn_1245_CtC[CH2]/rxn_1245_CtCCH2.yml

>  <frequencies_cm1>  (4) 
[355.94331707688, 407.51437683008004, 504.51054447508, 653.44172209524, 683.5053838262, 1024.2589293752399, 1075.37676809732, 1445.76135530216, 1997.3313501752, 3133.58394313432, 3230.4359040876, 3427.03082681388]

>  <ZPE_kJmol>  (4) 
107.29725110288972

>  <E_elec_kJmol>  (4) 
-304555.76281753613

>  <E0_minus_Eelec_plus_ZPE_kJmol>  (4) 
0.0

>  <rxn>  (4) 
rxn_1245

>  <species_type>  (4) 
p1

>  <species_folder>  (4) 
rxn_1245_CtC[CH2]

>  <frequencies_cm1_list>  (4) 
[355.94331707688, 407.51437683008004, 504.51054447508, 653.44172209524, 683.5053838262, 1024.2589293752399, 1075.37676809732, 1445.76135530216, 1997.3313501752, 3133.58394313432, 3230.4359040876, 3427.03082681388]

>  <E0_kJmol>  (4) 
-304448

>  <H298_kJmol>  (4) 
-304435

$$$$

     RDKit          3D

 12 11  0  0  0  0  0  0  0  0999 V2000
   -0.9951    0.1196   -0.8321 C   0  0  0  0  0  0  0  0  0  1  0  0
   -0.3760    0.2571    0.5231 C   0  0  0  0  0  3  0  0  0  2  0  0
    0.9330   -0.1537    0.7810 C   0  0  0  0  0  0  0  0  0  3  0  0
    1.5987   -0.1880    1.9734 C   0  0  0  0  0  0  0  0  0  4  0  0
   -1.4483    0.9449    1.7152 S   0  0  0  0  0  0  0  0  0  5  0  0
   -1.9164   -0.4696   -0.7936 H   0  0  0  0  0  0  0  0  0  6  0  0
   -1.2565    1.0958   -1.2506 H   0  0  0  0  0  0  0  0  0  7  0  0
   -0.3088   -0.3780   -1.5170 H   0  0  0  0  0  0  0  0  0  8  0  0
    1.4783   -0.4898   -0.0971 H   0  0  0  0  0  0  0  0  0  9  0  0
    2.6278   -0.5153    2.0142 H   0  0  0  0  0  0  0  0  0 10  0  0
    1.1316    0.0690    2.9151 H   0  0  0  0  0  0  0  0  0 11  0  0
   -0.5306    1.3052    2.6211 H   0  0  0  0  0  0  0  0  0 12  0  0
  1  8  1  0
  1  7  1  0
  1  6  1  0
  1  2  1  0
  2  5  1  0
  2  3  1  0
  3  4  1  0
  3  9  1  0
  4 10  1  0
  4 11  1  0
  5 12  1  0
M  RAD  1   2   2
M  END
>  <rmg_smiles>  (5) 
[CH2][CH][C](S)C

>  <rmg_adjacency_list>  (5) 
multiplicity 2
1  S u0 p2 c0 {3,S} {12,S}
2  C u0 p0 c0 {3,S} {6,S} {7,S} {8,S}
3  C u1 p0 c0 {1,S} {2,S} {4,S}
4  C u0 p0 c0 {3,S} {5,S} {9,S}
5  C u0 p0 c0 {4,S} {10,S} {11,S}
6  H u0 p0 c0 {2,S}
7  H u0 p0 c0 {2,S}
8  H u0 p0 c0 {2,S}
9  H u0 p0 c0 {4,S}
10 H u0 p0 c0 {5,S}
11 H u0 p0 c0 {5,S}
12 H u0 p0 c0 {1,S}


>  <multiplicity>  (5) 
2

>  <reaction>  (5) 
rxn_1245

>  <type>  (5) 
r2

>  <role_mapnums>  (5) 
{}

>  <role_mapidx>  (5) 
{}

>  <ordered_mapped_smiles>  (5) 
[C:1]([C:2]([CH:3]([CH:4]([H:10])[H:11])[H:9])[S:5][H:12])([H:6])([H:7])[H:8]

>  <level_of_theory>  (5) 
wb97xd/def2tzvp

>  <lot_method>  (5) 
wb97xd

>  <lot_basis>  (5) 
def2tzvp

>  <spin_multiplicity>  (5) 
2.0

>  <optical_isomers>  (5) 
2.0

>  <modes>  (5) 
IdealGasTranslation(mass=(87.0269, 'amu')),         NonlinearRotor(             inertia = ([99.3628, 146.633, 242.323

>  <frequency_value>  (5) 
unknown

>  <frequency_units>  (5) 
unknown

>  <frequency_list>  (5) 
unknown

>  <arkane_path>  (5) 
/home/calvin/Dropbox/PersonalFolders/Calvin/HAb_Converged/rxn_1245/output/Species/rxn_1245_C[C][C=C]S/arkane/output.py

>  <path_exists>  (5) 
True

>  <E0_value>  (5) 
-1456353.608765125

>  <E0_units>  (5) 
kJ/mol

>  <thermo_class>  (5) 
NASA

>  <Cp0_value>  (5) 
33.257888

>  <Cp0_units>  (5) 
J/(mol*K)

>  <CpInf_value>  (5) 
282.692048

>  <CpInf_units>  (5) 
J/(mol*K)

>  <Tmin_value>  (5) 
10.0

>  <Tmin_units>  (5) 
K

>  <Tmax_value>  (5) 
3000.0

>  <Tmax_units>  (5) 
K

>  <polynomials>  (5) 
[{"name": "polynomial1", "class": "NASAPolynomial", "Tmin_value": 10.0, "Tmin_units": "K", "Tmax_value": 205.80991427712218, "Tmax_units": "K", "coeffs": [3.8440716151485463, 0.015174752734817191, 0.00016959478629680551, -6.246323659510997e-07, 7.670877214797748e-10, -175158884.09466982, 11.74554198751139]}, {"name": "polynomial2", "class": "NASAPolynomial", "Tmin_value": 205.80991427712218, "Tmin_units": "K", "Tmax_value": 3000.0, "Tmax_units": "K", "coeffs": [2.4663335557323998, 0.041952173821737604, -2.5570291046252858e-05, 7.56538962079546e-09, -8.66016918218639e-13, -175158827.38533536, 16.214373622623416]}]

>  <H298_value>  (5) 
-348072.01766260894

>  <H298_units>  (5) 
kcal/mol

>  <S298_value>  (5) 
82.85997438116188

>  <S298_units>  (5) 
cal/(mol*K)

>  <Cp_T_value_list>  (5) 
[25.730171503702618, 31.036134336876824, 35.65325747623649, 39.653158562343805, 46.06711368365225, 50.768335011708174, 57.649692747325474, 61.11924507378844, 63.030727529768605]

>  <Cp_T_units>  (5) 
cal/(mol*K)

>  <T_list>  (5) 
[300.0, 400.0, 500.0, 600.0, 800.0, 1000.0, 1500.0, 2000.0, 2400.0]

>  <T_units>  (5) 
K

>  <yaml_path>  (5) 
/home/calvin/Dropbox/PersonalFolders/Calvin/HAb_Converged/rxn_1245/output/Species/rxn_1245_C[C][C=C]S/rxn_1245_CCC=CS.yml

>  <frequencies_cm1>  (5) 
[98.94639147588, 151.417026306, 232.0010990362, 298.89927002364, 330.48053551031995, 349.21367146328, 522.0762929236399, 588.7821883221199, 625.9600468445999, 795.4921804247599, 896.58107132048, 946.2019072428, 949.3950554165998, 1028.4615243910798, 1048.7259980703998, 1178.03819863132, 1246.9003274202798, 1314.9315509855198, 1402.4787468301997, 1441.74416888996, 1459.15884366148, 1479.79413454808, 1527.8149628908398, 2701.01880385688, 2997.3017524735997, 3049.97839686332, 3100.25159639104, 3118.39417160648, 3137.12730755944, 3226.2539100277195]

>  <ZPE_kJmol>  (5) 
246.69290464792437

>  <E_elec_kJmol>  (5) 
-1456600.301669773

>  <E0_minus_Eelec_plus_ZPE_kJmol>  (5) 
0.0

>  <rxn>  (5) 
rxn_1245

>  <species_type>  (5) 
r1

>  <species_folder>  (5) 
rxn_1245_C[C][C=C]S

>  <frequencies_cm1_list>  (5) 
[98.94639147588, 151.417026306, 232.0010990362, 298.89927002364, 330.48053551031995, 349.21367146328, 522.0762929236399, 588.7821883221199, 625.9600468445999, 795.4921804247599, 896.58107132048, 946.2019072428, 949.3950554165998, 1028.4615243910798, 1048.7259980703998, 1178.03819863132, 1246.9003274202798, 1314.9315509855198, 1402.4787468301997, 1441.74416888996, 1459.15884366148, 1479.79413454808, 1527.8149628908398, 2701.01880385688, 2997.3017524735997, 3049.97839686332, 3100.25159639104, 3118.39417160648, 3137.12730755944, 3226.2539100277195]

>  <E0_kJmol>  (5) 
-1.45635e+06

>  <H298_kJmol>  (5) 
-1.45633e+06

$$$$
