
     RDKit          3D

 18 18  0  0  0  0  0  0  0  0999 V2000
   -0.1981   -2.1068   -2.1039 C   0  0  0  0  0  0  0  0  0  1  0  0
    0.2992   -1.8281   -0.7150 C   0  0  0  0  0  0  0  0  0  2  0  0
    0.1552   -0.5076   -0.1165 C   0  0  0  0  0  0  0  0  0  3  0  0
   -0.8661    0.3706   -0.4979 C   0  0  0  0  0  0  0  0  0  4  0  0
   -1.0236    1.5900    0.1363 C   0  0  0  0  0  0  0  0  0  5  0  0
   -0.1680    1.9635    1.1626 C   0  0  0  0  0  0  0  0  0  6  0  0
    0.8526    1.1050    1.5517 C   0  0  0  0  0  0  0  0  0  7  0  0
    1.0094   -0.1146    0.9223 C   0  0  0  0  0  0  0  0  0  8  0  0
    0.3023   -1.4643   -2.8341 H   0  0  0  0  0  0  0  0  0  9  0  0
   -1.2725   -1.9305   -2.1929 H   0  0  0  0  0  0  0  0  0 10  0  0
   -0.0091   -3.1444   -2.3799 H   0  0  0  0  0  0  0  0  0 11  0  0
   -0.4078   -2.4294   -0.1473 H   0  0  0  0  0  0  0  0  0 12  0  0
    1.2249   -2.3344   -0.4494 H   0  0  0  0  0  0  0  0  0 13  0  0
   -1.5537    0.0897   -1.2846 H   0  0  0  0  0  0  0  0  0 14  0  0
   -1.8246    2.2514   -0.1685 H   0  0  0  0  0  0  0  0  0 15  0  0
   -0.2951    2.9177    1.6577 H   0  0  0  0  0  0  0  0  0 16  0  0
    1.5264    1.3899    2.3499 H   0  0  0  0  0  0  0  0  0 17  0  0
    1.8042   -0.7833    1.2329 H   0  0  0  0  0  0  0  0  0 18  0  0
  1 10  1  0
  1 11  1  0
  1  9  1  0
  1  2  1  0
  2 12  1  0
  2 13  1  0
  2  3  1  0
  3  4  1  0
  3  8  1  0
  4  5  1  0
  4 14  1  0
  5  6  1  0
  5 15  1  0
  6  7  1  0
  6 16  1  0
  7 17  1  0
  7  8  1  0
  8 18  1  0
M  END
>  <rmg_smiles>  (1) 
CCC1[CH][CH][CH][CH][CH]1

>  <rmg_adjacency_list>  (1) 
1  C u0 p0 c0 {2,S} {3,S} {9,S} {10,S}
2  C u0 p0 c0 {1,S} {11,S} {12,S} {13,S}
3  C u0 p0 c0 {1,S} {4,S} {5,S}
4  C u0 p0 c0 {3,S} {6,S} {14,S}
5  C u0 p0 c0 {3,S} {8,S} {18,S}
6  C u0 p0 c0 {4,S} {7,S} {15,S}
7  C u0 p0 c0 {6,S} {8,S} {16,S}
8  C u0 p0 c0 {5,S} {7,S} {17,S}
9  H u0 p0 c0 {1,S}
10 H u0 p0 c0 {1,S}
11 H u0 p0 c0 {2,S}
12 H u0 p0 c0 {2,S}
13 H u0 p0 c0 {2,S}
14 H u0 p0 c0 {4,S}
15 H u0 p0 c0 {6,S}
16 H u0 p0 c0 {7,S}
17 H u0 p0 c0 {8,S}
18 H u0 p0 c0 {5,S}


>  <multiplicity>  (1) 
1

>  <reaction>  (1) 
rxn_1503

>  <type>  (1) 
r1h

>  <role_mapnums>  (1) 
{"r1h_a": 2, "r1h_h": 12}

>  <role_mapidx>  (1) 
{"r1h_a": 1, "r1h_h": 11}

>  <ordered_mapped_smiles>  (1) 
[C:1]([C:2]([CH:3]1[CH:4]([H:14])[CH:5]([H:15])[CH:6]([H:16])[CH:7]([H:17])[CH:8]1[H:18])([H:12])[H:13])([H:9])([H:10])[H:11]

>  <mol_properties>  (1) 
{"1": {"label": "donator", "atom_type": "Cs"}, "11": {"label": "d_hydrogen", "atom_type": "H0"}}

>  <level_of_theory>  (1) 
wb97xd/def2tzvp

>  <lot_method>  (1) 
wb97xd

>  <lot_basis>  (1) 
def2tzvp

>  <spin_multiplicity>  (1) 
1.0

>  <optical_isomers>  (1) 
1.0

>  <modes>  (1) 
IdealGasTranslation(mass=(106.078, 'amu')),         NonlinearRotor(             inertia = ([110.416, 341.874, 411.865

>  <frequency_value>  (1) 
unknown

>  <frequency_units>  (1) 
unknown

>  <frequency_list>  (1) 
unknown

>  <arkane_path>  (1) 
/home/calvin/Dropbox/PersonalFolders/Calvin/HAb_Converged/rxn_1503/output/Species/rxn_1503_CCc1ccccc1/arkane/output.py

>  <path_exists>  (1) 
True

>  <E0_value>  (1) 
-815817.9037561571

>  <E0_units>  (1) 
kJ/mol

>  <thermo_class>  (1) 
NASA

>  <Cp0_value>  (1) 
33.257888

>  <Cp0_units>  (1) 
J/(mol*K)

>  <CpInf_value>  (1) 
432.352544

>  <CpInf_units>  (1) 
J/(mol*K)

>  <Tmin_value>  (1) 
10.0

>  <Tmin_units>  (1) 
K

>  <Tmax_value>  (1) 
3000.0

>  <Tmax_units>  (1) 
K

>  <polynomials>  (1) 
[{"name": "polynomial1", "class": "NASAPolynomial", "Tmin_value": 10.0, "Tmin_units": "K", "Tmax_value": 423.64221286564066, "Tmax_units": "K", "coeffs": [3.9313576428136847, 0.00433548241275686, 0.00021072402908531117, -3.936647014575837e-07, 2.39299197946727e-10, -98120227.55481465, 12.959903756557797]}, {"name": "polynomial2", "class": "NASAPolynomial", "Tmin_value": 423.64221286564066, "Tmin_units": "K", "Tmax_value": 3000.0, "Tmax_units": "K", "coeffs": [-3.831744087351853, 0.07763434183173747, -4.880767835098557e-05, 1.474976136685413e-08, -1.7152455638411797e-12, -98119569.80107659, 43.744896821921714]}]

>  <H298_value>  (1) 
-194980.06834128423

>  <H298_units>  (1) 
kcal/mol

>  <S298_value>  (1) 
85.45971865285561

>  <S298_units>  (1) 
cal/(mol*K)

>  <Cp_T_value_list>  (1) 
[30.814700172190967, 40.3659544276965, 48.72635221695798, 55.92346742650604, 67.34270920138786, 75.5723408499977, 87.237384341353, 92.9225471908414, 96.08425401549664]

>  <Cp_T_units>  (1) 
cal/(mol*K)

>  <T_list>  (1) 
[300.0, 400.0, 500.0, 600.0, 800.0, 1000.0, 1500.0, 2000.0, 2400.0]

>  <T_units>  (1) 
K

>  <yaml_path>  (1) 
/home/calvin/Dropbox/PersonalFolders/Calvin/HAb_Converged/rxn_1503/output/Species/rxn_1503_CCc1ccccc1/rxn_1503_CCc1ccccc1.yml

>  <frequencies_cm1>  (1) 
[34.3349266, 135.74656580575999, 222.50405833863996, 311.72679860139993, 360.38625657892, 413.90067317767995, 501.90109005348, 566.8971061072799, 633.36952400488, 715.5124024027199, 770.2697433443999, 787.05265546648, 789.67584385872, 862.2324107498398, 927.82585452648, 978.1333889808, 979.96687406124, 993.1308849196799, 1016.5747728021599, 1052.53030793768, 1054.54920162176, 1082.5459007714, 1116.4276063402797, 1174.3094256025597, 1199.89581290488, 1226.84186330056, 1261.7192817408397, 1329.56509670244, 1349.48622111576, 1353.9360276031198, 1398.4615604179999, 1477.6173002016399, 1482.14951051284, 1484.5254874335599, 1494.4826161475598, 1529.46990635296, 1639.9047642691999, 1662.1469297206797, 3013.28809429856, 3020.8349111652396, 3058.19131130604, 3090.8506934879597, 3092.1760216547195, 3142.7239005952397, 3143.62347567216, 3158.5385677872, 3168.2416180443593, 3180.7601322827195]

>  <ZPE_kJmol>  (1) 
409.36782000073936

>  <E_elec_kJmol>  (1) 
-816227.2715761579

>  <E0_minus_Eelec_plus_ZPE_kJmol>  (1) 
0.0

>  <rxn>  (1) 
rxn_1503

>  <species_type>  (1) 
r1

>  <species_folder>  (1) 
rxn_1503_CCc1ccccc1

>  <frequencies_cm1_list>  (1) 
[34.3349266, 135.74656580575999, 222.50405833863996, 311.72679860139993, 360.38625657892, 413.90067317767995, 501.90109005348, 566.8971061072799, 633.36952400488, 715.5124024027199, 770.2697433443999, 787.05265546648, 789.67584385872, 862.2324107498398, 927.82585452648, 978.1333889808, 979.96687406124, 993.1308849196799, 1016.5747728021599, 1052.53030793768, 1054.54920162176, 1082.5459007714, 1116.4276063402797, 1174.3094256025597, 1199.89581290488, 1226.84186330056, 1261.7192817408397, 1329.56509670244, 1349.48622111576, 1353.9360276031198, 1398.4615604179999, 1477.6173002016399, 1482.14951051284, 1484.5254874335599, 1494.4826161475598, 1529.46990635296, 1639.9047642691999, 1662.1469297206797, 3013.28809429856, 3020.8349111652396, 3058.19131130604, 3090.8506934879597, 3092.1760216547195, 3142.7239005952397, 3143.62347567216, 3158.5385677872, 3168.2416180443593, 3180.7601322827195]

>  <E0_kJmol>  (1) 
-815818

>  <H298_kJmol>  (1) 
-815797

$$$$

     RDKit          3D

 10  9  0  0  0  0  0  0  0  0999 V2000
    1.1905    0.1848    1.5589 C   0  0  0  0  0  0  0  0  0  1  0  0
    1.2150   -0.6134    0.2810 C   0  0  0  0  0  0  0  0  0  2  0  0
    0.0702   -0.6215   -0.5925 C   0  0  0  0  0  0  0  0  0  3  0  0
   -1.1630    0.4523   -0.6021 S   0  0  0  0  0  0  0  0  0  4  0  0
    0.8866    1.2143    1.3709 H   0  0  0  0  0  0  0  0  0  5  0  0
    0.4775   -0.2468    2.2650 H   0  0  0  0  0  0  0  0  0  6  0  0
    2.1765    0.1927    2.0247 H   0  0  0  0  0  0  0  0  0  7  0  0
    1.6889   -1.5922    0.3652 H   0  0  0  0  0  0  0  0  0  8  0  0
    0.0785   -1.4079   -1.3479 H   0  0  0  0  0  0  0  0  0  9  0  0
    1.9689   -0.1008   -0.3180 H   0  0  0  0  0  0  0  0  0 10  0  0
  1  5  1  0
  1  7  1  0
  1  6  1  0
  1  2  1  0
  2 10  1  0
  2  8  1  0
  2  3  1  0
  3  9  1  0
  3  4  1  0
M  END
>  <rmg_smiles>  (2) 
CC[CH][S]

>  <rmg_adjacency_list>  (2) 
1  S u0 p2 c0 {4,S}
2  C u0 p0 c0 {3,S} {4,S} {5,S} {6,S}
3  C u0 p0 c0 {2,S} {7,S} {8,S} {9,S}
4  C u0 p0 c0 {1,S} {2,S} {10,S}
5  H u0 p0 c0 {2,S}
6  H u0 p0 c0 {2,S}
7  H u0 p0 c0 {3,S}
8  H u0 p0 c0 {3,S}
9  H u0 p0 c0 {3,S}
10 H u0 p0 c0 {4,S}


>  <multiplicity>  (2) 
1

>  <reaction>  (2) 
rxn_1503

>  <type>  (2) 
r2h

>  <role_mapnums>  (2) 
{"r2h_a": 2, "r2h_h": 10}

>  <role_mapidx>  (2) 
{"r2h_a": 1, "r2h_h": 9}

>  <ordered_mapped_smiles>  (2) 
[C:1]([C:2]([CH:3]([SH:4])[H:9])([H:8])[H:10])([H:5])([H:6])[H:7]

>  <mol_properties>  (2) 
{"1": {"label": "acceptor", "atom_type": "Cs"}, "9": {"label": "a_hydrogen", "atom_type": "H0"}}

>  <level_of_theory>  (2) 
wb97xd/def2tzvp

>  <lot_method>  (2) 
wb97xd

>  <lot_basis>  (2) 
def2tzvp

>  <spin_multiplicity>  (2) 
1.0

>  <optical_isomers>  (2) 
2.0

>  <modes>  (2) 
IdealGasTranslation(mass=(74.019, 'amu')),         NonlinearRotor(             inertia = ([22.4966, 186.361, 188.795

>  <frequency_value>  (2) 
unknown

>  <frequency_units>  (2) 
unknown

>  <frequency_list>  (2) 
unknown

>  <arkane_path>  (2) 
/home/calvin/Dropbox/PersonalFolders/Calvin/HAb_Converged/rxn_1503/output/Species/rxn_1503_CCC=S/arkane/output.py

>  <path_exists>  (2) 
True

>  <E0_value>  (2) 
-1354842.217301763

>  <E0_units>  (2) 
kJ/mol

>  <thermo_class>  (2) 
NASA

>  <Cp0_value>  (2) 
33.257888

>  <Cp0_units>  (2) 
J/(mol*K)

>  <CpInf_value>  (2) 
232.805216

>  <CpInf_units>  (2) 
J/(mol*K)

>  <Tmin_value>  (2) 
10.0

>  <Tmin_units>  (2) 
K

>  <Tmax_value>  (2) 
3000.0

>  <Tmax_units>  (2) 
K

>  <polynomials>  (2) 
[{"name": "polynomial1", "class": "NASAPolynomial", "Tmin_value": 10.0, "Tmin_units": "K", "Tmax_value": 1013.5613876204479, "Tmax_units": "K", "coeffs": [3.938264474030978, 0.013958577362371608, 2.4928299834323208e-05, -3.437968169284249e-08, 1.1996855715308475e-11, -162949884.83258396, 10.036718283867241]}, {"name": "polynomial2", "class": "NASAPolynomial", "Tmin_value": 1013.5613876204479, "Tmin_units": "K", "Tmax_value": 3000.0, "Tmax_units": "K", "coeffs": [3.4971174702987913, 0.02812100302113746, -1.4413974403757785e-05, 3.5888447591702137e-09, -3.50645414543858e-13, -162950433.43848506, 9.023464985603324]}]

>  <H298_value>  (2) 
-323811.1931375839

>  <H298_units>  (2) 
kcal/mol

>  <S298_value>  (2) 
74.44131966579386

>  <S298_units>  (2) 
cal/(mol*K)

>  <Cp_T_value_list>  (2) 
[18.95458725520134, 23.085463908908388, 27.029925960895593, 30.63553072981776, 36.506480449108224, 40.62310264010602, 46.867049640781964, 50.04512758032496, 51.55141314203573]

>  <Cp_T_units>  (2) 
cal/(mol*K)

>  <T_list>  (2) 
[300.0, 400.0, 500.0, 600.0, 800.0, 1000.0, 1500.0, 2000.0, 2400.0]

>  <T_units>  (2) 
K

>  <yaml_path>  (2) 
/home/calvin/Dropbox/PersonalFolders/Calvin/HAb_Converged/rxn_1503/output/Species/rxn_1503_CCC=S/rxn_1503_CCC=S.yml

>  <frequencies_cm1>  (2) 
[74.28704719176, 221.72122201215998, 335.63077450031994, 396.89115054004003, 760.5804270578799, 844.8108689929999, 880.5466605982799, 995.2665173541999, 1070.3913367549999, 1106.71082211248, 1174.46736626492, 1258.5398675376798, 1308.6619933883599, 1395.2272103322798, 1411.9963884837198, 1463.1416951470799, 1484.2233400794798, 1490.93925172244, 3001.8614307260796, 3019.9765380002395, 3047.92516825264, 3080.3167380070795, 3099.9288480809996, 3104.5915311132794]

>  <ZPE_kJmol>  (2) 
215.4991505651017

>  <E_elec_kJmol>  (2) 
-1355057.716452328

>  <E0_minus_Eelec_plus_ZPE_kJmol>  (2) 
0.0

>  <rxn>  (2) 
rxn_1503

>  <species_type>  (2) 
p0

>  <species_folder>  (2) 
rxn_1503_CCC=S

>  <frequencies_cm1_list>  (2) 
[74.28704719176, 221.72122201215998, 335.63077450031994, 396.89115054004003, 760.5804270578799, 844.8108689929999, 880.5466605982799, 995.2665173541999, 1070.3913367549999, 1106.71082211248, 1174.46736626492, 1258.5398675376798, 1308.6619933883599, 1395.2272103322798, 1411.9963884837198, 1463.1416951470799, 1484.2233400794798, 1490.93925172244, 3001.8614307260796, 3019.9765380002395, 3047.92516825264, 3080.3167380070795, 3099.9288480809996, 3104.5915311132794]

>  <E0_kJmol>  (2) 
-1.35484e+06

>  <H298_kJmol>  (2) 
-1.35483e+06

$$$$

     RDKit          3D

 27 26  0  0  0  0  0  0  0  0999 V2000
   -0.5030   -1.1889    2.0843 C   0  0  0  0  0  0  0  0  0  1  0  0
   -0.4785   -1.9871    0.8064 C   0  0  0  0  0  0  0  0  0  2  0  0
   -1.6233   -1.9952   -0.0670 C   0  0  0  0  0  0  0  0  0  3  0  0
   -2.8566   -0.9214   -0.0767 S   0  0  0  0  0  0  0  0  0  4  0  0
   -0.8069   -0.1594    1.8963 H   0  0  0  0  0  0  0  0  0  5  0  0
   -1.2161   -1.6205    2.7904 H   0  0  0  0  0  0  0  0  0  6  0  0
    0.4829   -1.1810    2.5502 H   0  0  0  0  0  0  0  0  0  7  0  0
   -0.0047   -2.9659    0.8906 H   0  0  0  0  0  0  0  0  0  8  0  0
   -1.6150   -2.7816   -0.8224 H   0  0  0  0  0  0  0  0  0  9  0  0
    0.8403   -0.8735   -2.0331 C   0  0  0  0  0  0  0  0  0 10  0  0
    1.3376   -0.5948   -0.6442 C   0  0  0  0  0  0  0  0  0 11  0  0
    1.1935    0.7257   -0.0457 C   0  0  0  0  0  0  0  0  0 12  0  0
    0.1722    1.6040   -0.4271 C   0  0  0  0  0  3  0  0  0 13  0  0
    0.0148    2.8234    0.2071 C   0  0  0  0  0  0  0  0  0 14  0  0
    0.8703    3.1969    1.2334 C   0  0  0  0  0  0  0  0  0 15  0  0
    1.8909    2.3384    1.6224 C   0  0  0  0  0  0  0  0  0 16  0  0
    2.0477    1.1188    0.9931 C   0  0  0  0  0  0  0  0  0 17  0  0
    1.3406   -0.2310   -2.7633 H   0  0  0  0  0  0  0  0  0 18  0  0
   -0.2341   -0.6971   -2.1221 H   0  0  0  0  0  0  0  0  0 19  0  0
    1.0292   -1.9111   -2.3092 H   0  0  0  0  0  0  0  0  0 20  0  0
    0.4145   -1.3798    0.0969 H   0  0  0  0  0  0  0  0  0 21  0  0
    2.2632   -1.1011   -0.3786 H   0  0  0  0  0  0  0  0  0 22  0  0
   -0.5154    1.3230   -1.2138 H   0  0  0  0  0  0  0  0  0 23  0  0
   -0.7863    3.4847   -0.0978 H   0  0  0  0  0  0  0  0  0 24  0  0
    0.7433    4.1510    1.7285 H   0  0  0  0  0  0  0  0  0 25  0  0
    2.5647    2.6232    2.4207 H   0  0  0  0  0  0  0  0  0 26  0  0
    2.8425    0.4500    1.3037 H   0  0  0  0  0  0  0  0  0 27  0  0
  1  7  1  0
  1  5  1  0
  1  6  1  0
  1  2  1  0
  2  8  1  0
  2  3  1  0
  2 21  1  0
  3  9  1  0
  3  4  1  0
 10 18  1  0
 10 11  1  0
 10 19  1  0
 10 20  1  0
 11 12  1  0
 11 22  1  0
 12 17  1  0
 12 13  1  0
 13 23  1  0
 13 14  1  0
 14 15  1  0
 14 24  1  0
 15 25  1  0
 15 16  1  0
 16 26  1  0
 16 17  1  0
 17 27  1  0
M  RAD  1  13   2
M  END
>  <rmg_smiles>  (3) 
C[CH][C]1[CH][CH][CH][CH][CH]1.CC[CH][S]

>  <rmg_adjacency_list>  (3) 
multiplicity 2
1  S u0 p2 c0 {12,S}
2  C u0 p0 c0 {3,S} {12,S} {13,S} {14,S}
3  C u0 p0 c0 {2,S} {15,S} {16,S} {17,S}
4  C u0 p0 c0 {6,S} {18,S} {19,S} {20,S}
5  C u0 p0 c0 {6,S} {7,S} {8,S}
6  C u0 p0 c0 {4,S} {5,S} {21,S}
7  C u1 p0 c0 {5,S} {9,S} {22,S}
8  C u0 p0 c0 {5,S} {11,S} {26,S}
9  C u0 p0 c0 {7,S} {10,S} {23,S}
10 C u0 p0 c0 {9,S} {11,S} {24,S}
11 C u0 p0 c0 {8,S} {10,S} {25,S}
12 C u0 p0 c0 {1,S} {2,S} {27,S}
13 H u0 p0 c0 {2,S}
14 H u0 p0 c0 {2,S}
15 H u0 p0 c0 {3,S}
16 H u0 p0 c0 {3,S}
17 H u0 p0 c0 {3,S}
18 H u0 p0 c0 {4,S}
19 H u0 p0 c0 {4,S}
20 H u0 p0 c0 {4,S}
21 H u0 p0 c0 {6,S}
22 H u0 p0 c0 {7,S}
23 H u0 p0 c0 {9,S}
24 H u0 p0 c0 {10,S}
25 H u0 p0 c0 {11,S}
26 H u0 p0 c0 {8,S}
27 H u0 p0 c0 {12,S}


>  <multiplicity>  (3) 
2

>  <reaction>  (3) 
rxn_1503

>  <type>  (3) 
ts

>  <role_mapnums>  (3) 
{"*2": 21, "*1": 11, "*3": 2, "*0": 3, "*4": 12}

>  <role_mapidx>  (3) 
{"*2": 20, "*1": 10, "*3": 1, "*0": 2, "*4": 11}

>  <ordered_mapped_smiles>  (3) 
[C:1]([C:2]([CH:3]([SH:4])[H:9])([H:8])[H:21])([H:5])([H:6])[H:7].[C:10]([CH:11]([CH:12]1[C:13]([H:23])[CH:14]([H:24])[CH:15]([H:25])[CH:16]([H:26])[CH:17]1[H:27])[H:22])([H:18])([H:19])[H:20]

>  <mol_properties>  (3) 
{"1": {"label": "*3", "atom_type": "Cs"}, "2": {"label": "*0", "atom_type": "Cs"}, "10": {"label": "*1", "atom_type": "Cs"}, "11": {"label": "*4", "atom_type": "Cs"}, "20": {"label": "*2", "atom_type": "H0"}}

>  <level_of_theory>  (3) 
wb97xd/def2tzvp

>  <lot_method>  (3) 
wb97xd

>  <lot_basis>  (3) 
def2tzvp

>  <spin_multiplicity>  (3) 
2.0

>  <optical_isomers>  (3) 
2.0

>  <modes>  (3) 
IdealGasTranslation(mass=(179.089, 'amu')),         NonlinearRotor(             inertia = ([449.481, 982.348, 1054.01

>  <frequency_value>  (3) 
-1536.29

>  <frequency_units>  (3) 
cm^-1

>  <frequency_list>  (3) 
unknown

>  <arkane_path>  (3) 
/home/calvin/Dropbox/PersonalFolders/Calvin/HAb_Converged/rxn_1503/output/rxns/TS0/arkane/output.py

>  <path_exists>  (3) 
True

>  <E0_value>  (3) 
-2168950.0

>  <E0_units>  (3) 
kJ/mol

>  <thermo_class>  (3) 
unknown

>  <Cp0_value>  (3) 
unknown

>  <Cp0_units>  (3) 
unknown

>  <CpInf_value>  (3) 
unknown

>  <CpInf_units>  (3) 
unknown

>  <Tmin_value>  (3) 
unknown

>  <Tmin_units>  (3) 
unknown

>  <Tmax_value>  (3) 
unknown

>  <Tmax_units>  (3) 
unknown

>  <polynomials>  (3) 
unknown

>  <H298_value>  (3) 
unknown

>  <H298_units>  (3) 
unknown

>  <S298_value>  (3) 
unknown

>  <S298_units>  (3) 
unknown

>  <Cp_T_value_list>  (3) 
unknown

>  <Cp_T_units>  (3) 
unknown

>  <T_list>  (3) 
unknown

>  <T_units>  (3) 
unknown

>  <yaml_path>  (3) 
unknown

>  <frequencies_cm1>  (3) 
unknown

>  <ZPE_kJmol>  (3) 
unknown

>  <E_elec_kJmol>  (3) 
unknown

>  <E0_minus_Eelec_plus_ZPE_kJmol>  (3) 
unknown

>  <rxn>  (3) 
unknown

>  <species_type>  (3) 
unknown

>  <species_folder>  (3) 
unknown

>  <frequencies_cm1_list>  (3) 
[]

>  <ts_imag_freq_cm1>  (3) 
-1554.9526

>  <ts_freq_out_path>  (3) 
/home/calvin/Dropbox/PersonalFolders/Calvin/HAb_Converged/rxn_1503/output/rxns/TS0/geometry/freq.out

>  <E0_kJmol>  (3) 
-2.16895e+06

>  <H298_kJmol>  (3) 
unknown

$$$$

     RDKit          3D

 17 17  0  0  0  0  0  0  0  0999 V2000
    2.7069    0.2860   -0.1817 C   0  0  0  0  0  0  0  0  0  1  0  0
    1.6304   -0.7245    0.0085 C   0  0  0  0  0  0  0  0  0  2  0  0
    1.4786   -1.8800   -0.7837 C   0  0  0  0  0  0  0  0  0  3  0  0
    0.4231   -2.7891   -0.5312 C   0  0  0  0  0  3  0  0  0  4  0  0
    0.2582   -3.9235   -1.2940 C   0  0  0  0  0  0  0  0  0  5  0  0
    1.1348   -4.2030   -2.3401 C   0  0  0  0  0  0  0  0  0  6  0  0
    2.1804   -3.3260   -2.6093 C   0  0  0  0  0  0  0  0  0  7  0  0
    2.3549   -2.1866   -1.8513 C   0  0  0  0  0  0  0  0  0  8  0  0
    2.6698    0.7343   -1.1808 H   0  0  0  0  0  0  0  0  0  9  0  0
    3.7029   -0.1584   -0.0766 H   0  0  0  0  0  0  0  0  0 10  0  0
    2.6250    1.0917    0.5463 H   0  0  0  0  0  0  0  0  0 11  0  0
    0.9136   -0.5677    0.8059 H   0  0  0  0  0  0  0  0  0 12  0  0
   -0.2629   -2.5783    0.2811 H   0  0  0  0  0  0  0  0  0 13  0  0
   -0.5582   -4.6017   -1.0785 H   0  0  0  0  0  0  0  0  0 14  0  0
    1.0033   -5.0952   -2.9384 H   0  0  0  0  0  0  0  0  0 15  0  0
    2.8650   -3.5382   -3.4214 H   0  0  0  0  0  0  0  0  0 16  0  0
    3.1750   -1.5169   -2.0772 H   0  0  0  0  0  0  0  0  0 17  0  0
  1 10  1  0
  1 11  1  0
  1  9  1  0
  1  2  1  0
  2 12  1  0
  2  3  1  0
  3  4  1  0
  3  8  1  0
  4  5  1  0
  4 13  1  0
  5 14  1  0
  5  6  1  0
  6 15  1  0
  6  7  1  0
  7  8  1  0
  7 16  1  0
  8 17  1  0
M  RAD  1   4   2
M  END
>  <rmg_smiles>  (4) 
C[CH]C1[CH][CH][CH][CH][CH]1

>  <rmg_adjacency_list>  (4) 
multiplicity 2
1  C u0 p0 c0 {3,S} {9,S} {10,S} {11,S}
2  C u0 p0 c0 {3,S} {4,S} {5,S}
3  C u0 p0 c0 {1,S} {2,S} {12,S}
4  C u1 p0 c0 {2,S} {6,S} {13,S}
5  C u0 p0 c0 {2,S} {8,S} {17,S}
6  C u0 p0 c0 {4,S} {7,S} {14,S}
7  C u0 p0 c0 {6,S} {8,S} {15,S}
8  C u0 p0 c0 {5,S} {7,S} {16,S}
9  H u0 p0 c0 {1,S}
10 H u0 p0 c0 {1,S}
11 H u0 p0 c0 {1,S}
12 H u0 p0 c0 {3,S}
13 H u0 p0 c0 {4,S}
14 H u0 p0 c0 {6,S}
15 H u0 p0 c0 {7,S}
16 H u0 p0 c0 {8,S}
17 H u0 p0 c0 {5,S}


>  <multiplicity>  (4) 
2

>  <reaction>  (4) 
rxn_1503

>  <type>  (4) 
r1

>  <role_mapnums>  (4) 
{}

>  <role_mapidx>  (4) 
{}

>  <ordered_mapped_smiles>  (4) 
[C:1]([CH:2]([CH:3]1[C:4]([H:13])[CH:5]([H:14])[CH:6]([H:15])[CH:7]([H:16])[CH:8]1[H:17])[H:12])([H:9])([H:10])[H:11]

>  <level_of_theory>  (4) 
wb97xd/def2tzvp

>  <lot_method>  (4) 
wb97xd

>  <lot_basis>  (4) 
def2tzvp

>  <spin_multiplicity>  (4) 
2.0

>  <optical_isomers>  (4) 
1.0

>  <modes>  (4) 
IdealGasTranslation(mass=(105.07, 'amu')),         NonlinearRotor(             inertia = ([100.906, 335.03, 432.828

>  <frequency_value>  (4) 
unknown

>  <frequency_units>  (4) 
unknown

>  <frequency_list>  (4) 
unknown

>  <arkane_path>  (4) 
/home/calvin/Dropbox/PersonalFolders/Calvin/HAb_Converged/rxn_1503/output/Species/rxn_1503_C[CH]c1ccccc1/arkane/output.py

>  <path_exists>  (4) 
True

>  <E0_value>  (4) 
-814145.4390471868

>  <E0_units>  (4) 
kJ/mol

>  <thermo_class>  (4) 
NASA

>  <Cp0_value>  (4) 
33.257888

>  <Cp0_units>  (4) 
J/(mol*K)

>  <CpInf_value>  (4) 
407.409128

>  <CpInf_units>  (4) 
J/(mol*K)

>  <Tmin_value>  (4) 
10.0

>  <Tmin_units>  (4) 
K

>  <Tmax_value>  (4) 
3000.0

>  <Tmax_units>  (4) 
K

>  <polynomials>  (4) 
[{"name": "polynomial1", "class": "NASAPolynomial", "Tmin_value": 10.0, "Tmin_units": "K", "Tmax_value": 500.0181965945725, "Tmax_units": "K", "coeffs": [3.899986948526094, 0.0061904905300886525, 0.00020706851194563026, -3.977105955988957e-07, 2.4150499526027994e-10, -97919075.07363199, 12.718849532292747]}, {"name": "polynomial2", "class": "NASAPolynomial", "Tmin_value": 500.0181965945725, "Tmin_units": "K", "Tmax_value": 3000.0, "Tmax_units": "K", "coeffs": [-1.970517894513406, 0.07180867834424715, -4.574442536416197e-05, 1.397905514411292e-08, -1.6399820111971568e-12, -97918721.21698426, 34.639664550558976]}]

>  <H298_value>  (4) 
-194580.26959244045

>  <H298_units>  (4) 
kcal/mol

>  <S298_value>  (4) 
85.3392210607043

>  <S298_units>  (4) 
cal/(mol*K)

>  <Cp_T_value_list>  (4) 
[31.02288591619177, 40.21349792515304, 47.9763276039249, 54.55603245481067, 64.9529019753296, 72.39951333986244, 82.85547162555633, 87.95746847782826, 90.85152645234143]

>  <Cp_T_units>  (4) 
cal/(mol*K)

>  <T_list>  (4) 
[300.0, 400.0, 500.0, 600.0, 800.0, 1000.0, 1500.0, 2000.0, 2400.0]

>  <T_units>  (4) 
K

>  <yaml_path>  (4) 
/home/calvin/Dropbox/PersonalFolders/Calvin/HAb_Converged/rxn_1503/output/Species/rxn_1503_C[CH]c1ccccc1/rxn_1503_CCHc1ccccc1.yml

>  <frequencies_cm1>  (4) 
[105.45629355923998, 120.83147369072, 216.25510169744, 238.46979920763997, 411.38735655056, 430.68358529975995, 477.9078433454, 558.86273328288, 625.17721051812, 625.35575213644, 690.24189642512, 769.39763620876, 797.72395065376, 833.5833479948, 901.31929119128, 970.7101778498799, 980.6055036959999, 988.6055415938, 1000.11460899012, 1025.94134077864, 1044.8942202618398, 1074.80680831576, 1128.88431771076, 1167.6621838128, 1182.4262022508, 1237.72603503276, 1316.38048488804, 1342.4681621187199, 1389.5344795019998, 1422.2556645518, 1466.88420214648, 1475.4885347524398, 1484.7520979491198, 1503.6912434616797, 1594.2805138031197, 1610.7269436445201, 2982.0364441072397, 3025.80660853692, 3101.1374374973198, 3147.482721422, 3152.804635045, 3154.61751916948, 3165.4673559750795, 3173.5635316673593, 3183.0811733208798]

>  <ZPE_kJmol>  (4) 
372.6218456560276

>  <E_elec_kJmol>  (4) 
-814518.0608928428

>  <E0_minus_Eelec_plus_ZPE_kJmol>  (4) 
0.0

>  <rxn>  (4) 
rxn_1503

>  <species_type>  (4) 
p1

>  <species_folder>  (4) 
rxn_1503_C[CH]c1ccccc1

>  <frequencies_cm1_list>  (4) 
[105.45629355923998, 120.83147369072, 216.25510169744, 238.46979920763997, 411.38735655056, 430.68358529975995, 477.9078433454, 558.86273328288, 625.17721051812, 625.35575213644, 690.24189642512, 769.39763620876, 797.72395065376, 833.5833479948, 901.31929119128, 970.7101778498799, 980.6055036959999, 988.6055415938, 1000.11460899012, 1025.94134077864, 1044.8942202618398, 1074.80680831576, 1128.88431771076, 1167.6621838128, 1182.4262022508, 1237.72603503276, 1316.38048488804, 1342.4681621187199, 1389.5344795019998, 1422.2556645518, 1466.88420214648, 1475.4885347524398, 1484.7520979491198, 1503.6912434616797, 1594.2805138031197, 1610.7269436445201, 2982.0364441072397, 3025.80660853692, 3101.1374374973198, 3147.482721422, 3152.804635045, 3154.61751916948, 3165.4673559750795, 3173.5635316673593, 3183.0811733208798]

>  <E0_kJmol>  (4) 
-814145

>  <H298_kJmol>  (4) 
-814124

$$$$

     RDKit          3D

  9  8  0  0  0  0  0  0  0  0999 V2000
   -1.2704   -0.1236    0.1096 C   0  0  0  0  0  0  0  0  0  1  0  0
    0.0713   -0.5323    0.5887 C   0  0  0  0  0  0  0  0  0  2  0  0
    0.9521   -1.3639   -0.0464 C   0  0  0  0  0  0  0  0  0  3  0  0
    0.6900   -2.1109   -1.5335 S   0  0  0  0  0  1  0  0  0  4  0  0
   -1.3201    0.9657    0.0241 H   0  0  0  0  0  0  0  0  0  5  0  0
   -1.5103   -0.5706   -0.8526 H   0  0  0  0  0  0  0  0  0  6  0  0
   -2.0312   -0.4112    0.8411 H   0  0  0  0  0  0  0  0  0  7  0  0
    0.3863   -0.1265    1.5468 H   0  0  0  0  0  0  0  0  0  8  0  0
    1.8971   -1.5543    0.4552 H   0  0  0  0  0  0  0  0  0  9  0  0
  1  5  1  0
  1  7  1  0
  1  6  1  0
  1  2  1  0
  2  8  1  0
  2  3  1  0
  3  9  1  0
  3  4  1  0
M  RAD  1   4   2
M  END
>  <rmg_smiles>  (5) 
C[CH][CH][S]

>  <rmg_adjacency_list>  (5) 
multiplicity 2
1 S u1 p2 c0 {4,S}
2 C u0 p0 c0 {3,S} {5,S} {6,S} {7,S}
3 C u0 p0 c0 {2,S} {4,S} {8,S}
4 C u0 p0 c0 {1,S} {3,S} {9,S}
5 H u0 p0 c0 {2,S}
6 H u0 p0 c0 {2,S}
7 H u0 p0 c0 {2,S}
8 H u0 p0 c0 {3,S}
9 H u0 p0 c0 {4,S}


>  <multiplicity>  (5) 
2

>  <reaction>  (5) 
rxn_1503

>  <type>  (5) 
r2

>  <role_mapnums>  (5) 
{}

>  <role_mapidx>  (5) 
{}

>  <ordered_mapped_smiles>  (5) 
[C:1]([CH:2]([CH:3]([S:4])[H:9])[H:8])([H:5])([H:6])[H:7]

>  <level_of_theory>  (5) 
wb97xd/def2tzvp

>  <lot_method>  (5) 
wb97xd

>  <lot_basis>  (5) 
def2tzvp

>  <spin_multiplicity>  (5) 
2.0

>  <optical_isomers>  (5) 
1.0

>  <modes>  (5) 
IdealGasTranslation(mass=(73.0112, 'amu')),         NonlinearRotor(             inertia = ([33.6944, 136.887, 167.488

>  <frequency_value>  (5) 
unknown

>  <frequency_units>  (5) 
unknown

>  <frequency_list>  (5) 
unknown

>  <arkane_path>  (5) 
/home/calvin/Dropbox/PersonalFolders/Calvin/HAb_Converged/rxn_1503/output/Species/rxn_1503_C[CH]C=S/arkane/output.py

>  <path_exists>  (5) 
True

>  <E0_value>  (5) 
-1353215.6281101538

>  <E0_units>  (5) 
kJ/mol

>  <thermo_class>  (5) 
NASA

>  <Cp0_value>  (5) 
33.257888

>  <Cp0_units>  (5) 
J/(mol*K)

>  <CpInf_value>  (5) 
207.8618

>  <CpInf_units>  (5) 
J/(mol*K)

>  <Tmin_value>  (5) 
10.0

>  <Tmin_units>  (5) 
K

>  <Tmax_value>  (5) 
3000.0

>  <Tmax_units>  (5) 
K

>  <polynomials>  (5) 
[{"name": "polynomial1", "class": "NASAPolynomial", "Tmin_value": 10.0, "Tmin_units": "K", "Tmax_value": 725.9670831251275, "Tmax_units": "K", "coeffs": [3.8816748203713503, 0.011298408175925107, 3.675471007626225e-05, -5.977324289779361e-08, 2.695700402648573e-11, -162754245.86998293, 10.102760819727918]}, {"name": "polynomial2", "class": "NASAPolynomial", "Tmin_value": 725.9670831251275, "Tmin_units": "K", "Tmax_value": 3000.0, "Tmax_units": "K", "coeffs": [2.113334188366536, 0.02911249006728392, -1.6728703347228576e-05, 4.6550260025625346e-09, -5.035736545429853e-13, -162754201.7933275, 16.602901379195625]}]

>  <H298_value>  (5) 
-323422.5645571532

>  <H298_units>  (5) 
kcal/mol

>  <S298_value>  (5) 
73.01356091694491

>  <S298_units>  (5) 
cal/(mol*K)

>  <Cp_T_value_list>  (5) 
[18.249700390386565, 22.1502054191087, 25.699972971809594, 28.76485903066641, 33.53225294606782, 37.05856600875504, 42.33516489554981, 44.92384433755821, 46.24168569821556]

>  <Cp_T_units>  (5) 
cal/(mol*K)

>  <T_list>  (5) 
[300.0, 400.0, 500.0, 600.0, 800.0, 1000.0, 1500.0, 2000.0, 2400.0]

>  <T_units>  (5) 
K

>  <yaml_path>  (5) 
/home/calvin/Dropbox/PersonalFolders/Calvin/HAb_Converged/rxn_1503/output/Species/rxn_1503_C[CH]C=S/rxn_1503_CCHC=S.yml

>  <frequencies_cm1>  (5) 
[111.67778225915998, 241.84835598508, 328.91486285736, 569.66450119124, 701.4282155114, 825.4665713465598, 919.54427023056, 945.2817312099198, 1036.1937498614, 1093.82149066684, 1239.0307622435598, 1356.916299232, 1389.82289288544, 1434.05314533156, 1462.16658323164, 1523.85957934652, 3007.1696103784398, 3060.1209341809595, 3105.60097795532, 3123.1735933892, 3133.0620522499994]

>  <ZPE_kJmol>  (5) 
183.08144113792287

>  <E_elec_kJmol>  (5) 
-1353398.7095512918

>  <E0_minus_Eelec_plus_ZPE_kJmol>  (5) 
0.0

>  <rxn>  (5) 
rxn_1503

>  <species_type>  (5) 
r0

>  <species_folder>  (5) 
rxn_1503_C[CH]C=S

>  <frequencies_cm1_list>  (5) 
[111.67778225915998, 241.84835598508, 328.91486285736, 569.66450119124, 701.4282155114, 825.4665713465598, 919.54427023056, 945.2817312099198, 1036.1937498614, 1093.82149066684, 1239.0307622435598, 1356.916299232, 1389.82289288544, 1434.05314533156, 1462.16658323164, 1523.85957934652, 3007.1696103784398, 3060.1209341809595, 3105.60097795532, 3123.1735933892, 3133.0620522499994]

>  <E0_kJmol>  (5) 
-1.35322e+06

>  <H298_kJmol>  (5) 
-1.3532e+06

$$$$
