
     RDKit          3D

 15 15  0  0  0  0  0  0  0  0999 V2000
    0.1228    0.0389   -2.4472 C   0  0  0  0  0  0  0  0  0  1  0  0
    0.0626    0.0162   -0.9448 C   0  0  0  0  0  0  0  0  0  2  0  0
   -0.0232    1.2032   -0.2164 C   0  0  0  0  0  0  0  0  0  3  0  0
   -0.1080    1.1524    1.1563 C   0  0  0  0  0  0  0  0  0  4  0  0
   -0.1099   -0.0317    1.8600 C   0  0  0  0  0  0  0  0  0  5  0  0
   -0.0206   -1.2165    1.1394 C   0  0  0  0  0  0  0  0  0  6  0  0
    0.0649   -1.1871   -0.2450 C   0  0  0  0  0  0  0  0  0  7  0  0
   -0.8834    0.0529   -2.8738 H   0  0  0  0  0  0  0  0  0  8  0  0
    0.6454    0.9249   -2.8094 H   0  0  0  0  0  0  0  0  0  9  0  0
    0.6338   -0.8420   -2.8369 H   0  0  0  0  0  0  0  0  0 10  0  0
   -0.0204    2.1568   -0.7341 H   0  0  0  0  0  0  0  0  0 11  0  0
   -0.1713    2.0903    1.7082 H   0  0  0  0  0  0  0  0  0 12  0  0
   -0.1748   -0.0427    2.9413 H   0  0  0  0  0  0  0  0  0 13  0  0
   -0.0144   -2.1673    1.6589 H   0  0  0  0  0  0  0  0  0 14  0  0
    0.1375   -2.1189   -0.7943 H   0  0  0  0  0  0  0  0  0 15  0  0
  1 10  1  0
  1  8  1  0
  1  9  1  0
  1  2  1  0
  2  7  1  0
  2  3  1  0
  3 11  1  0
  3  4  1  0
  4  5  1  0
  4 12  1  0
  5  6  1  0
  5 13  1  0
  6 14  1  0
  6  7  1  0
  7 15  1  0
M  END
>  <rmg_smiles>  (1) 
CC1[CH][CH][CH][CH][CH]1

>  <rmg_adjacency_list>  (1) 
1  C u0 p0 c0 {2,S} {8,S} {9,S} {10,S}
2  C u0 p0 c0 {1,S} {3,S} {4,S}
3  C u0 p0 c0 {2,S} {5,S} {11,S}
4  C u0 p0 c0 {2,S} {7,S} {15,S}
5  C u0 p0 c0 {3,S} {6,S} {12,S}
6  C u0 p0 c0 {5,S} {7,S} {13,S}
7  C u0 p0 c0 {4,S} {6,S} {14,S}
8  H u0 p0 c0 {1,S}
9  H u0 p0 c0 {1,S}
10 H u0 p0 c0 {1,S}
11 H u0 p0 c0 {3,S}
12 H u0 p0 c0 {5,S}
13 H u0 p0 c0 {6,S}
14 H u0 p0 c0 {7,S}
15 H u0 p0 c0 {4,S}


>  <multiplicity>  (1) 
1

>  <reaction>  (1) 
rxn_269

>  <type>  (1) 
r1h

>  <role_mapnums>  (1) 
{"r1h_a": 4, "r1h_h": 12}

>  <role_mapidx>  (1) 
{"r1h_a": 3, "r1h_h": 11}

>  <ordered_mapped_smiles>  (1) 
[C:1]([CH:2]1[CH:3]([H:11])[CH:4]([H:12])[CH:5]([H:13])[CH:6]([H:14])[CH:7]1[H:15])([H:8])([H:9])[H:10]

>  <mol_properties>  (1) 
{"3": {"label": "donator", "atom_type": "Cs"}, "11": {"label": "d_hydrogen", "atom_type": "H0"}}

>  <level_of_theory>  (1) 
wb97xd/def2tzvp

>  <lot_method>  (1) 
wb97xd

>  <lot_basis>  (1) 
def2tzvp

>  <spin_multiplicity>  (1) 
1.0

>  <optical_isomers>  (1) 
1.0

>  <modes>  (1) 
IdealGasTranslation(mass=(92.0626, 'amu')),         NonlinearRotor(             inertia = ([90.1823, 198.896, 285.945

>  <frequency_value>  (1) 
unknown

>  <frequency_units>  (1) 
unknown

>  <frequency_list>  (1) 
unknown

>  <arkane_path>  (1) 
/home/calvin/Dropbox/PersonalFolders/Calvin/HAb_Converged/rxn_269/output/Species/rxn_269_Cc1ccccc1/arkane/output.py

>  <path_exists>  (1) 
True

>  <E0_value>  (1) 
-712667.4186954657

>  <E0_units>  (1) 
kJ/mol

>  <thermo_class>  (1) 
NASA

>  <Cp0_value>  (1) 
33.257888

>  <Cp0_units>  (1) 
J/(mol*K)

>  <CpInf_value>  (1) 
357.522296

>  <CpInf_units>  (1) 
J/(mol*K)

>  <Tmin_value>  (1) 
10.0

>  <Tmin_units>  (1) 
K

>  <Tmax_value>  (1) 
3000.0

>  <Tmax_units>  (1) 
K

>  <polynomials>  (1) 
[{"name": "polynomial1", "class": "NASAPolynomial", "Tmin_value": 10.0, "Tmin_units": "K", "Tmax_value": 551.6404107050422, "Tmax_units": "K", "coeffs": [3.9807877443631, 0.00035561988080208296, 0.00017407945539970812, -2.980514466570864e-07, 1.625970399361135e-10, -85714089.32981402, 11.957872909957874]}, {"name": "polynomial2", "class": "NASAPolynomial", "Tmin_value": 551.6404107050422, "Tmin_units": "K", "Tmax_value": 3000.0, "Tmax_units": "K", "coeffs": [-2.4640727136101863, 0.06292197006651765, -3.910390273638268e-05, 1.1617229825521433e-08, -1.3239176957032157e-12, -85713619.20098881, 37.03314537917204]}]

>  <H298_value>  (1) 
-170327.1711088113

>  <H298_units>  (1) 
kcal/mol

>  <S298_value>  (1) 
79.81344471114225

>  <S298_units>  (1) 
cal/(mol*K)

>  <Cp_T_value_list>  (1) 
[25.881917309628086, 33.90758568479932, 40.90534559010948, 46.79761268221675, 56.14404960423432, 62.889733704082204, 72.41563025517803, 76.9434671339039, 79.45318395865998]

>  <Cp_T_units>  (1) 
cal/(mol*K)

>  <T_list>  (1) 
[300.0, 400.0, 500.0, 600.0, 800.0, 1000.0, 1500.0, 2000.0, 2400.0]

>  <T_units>  (1) 
K

>  <yaml_path>  (1) 
/home/calvin/Dropbox/PersonalFolders/Calvin/HAb_Converged/rxn_269/output/Species/rxn_269_Cc1ccccc1/rxn_269_Cc1ccccc1.yml

>  <frequencies_cm1>  (1) 
[32.67311615255999, 208.88682644908, 346.6454189536, 414.1066827372799, 475.62800421915995, 527.95443235756, 633.69913930024, 711.73556047672, 745.6928028841199, 800.1617304423601, 861.8684605278798, 915.5202168330399, 979.4449831769199, 991.60641417864, 997.6768292015198, 1015.82627140228, 1052.7363174972797, 1058.5389200926797, 1109.8078324918, 1173.8974064833599, 1201.1112693065197, 1232.0058362611999, 1316.04400260736, 1349.7815014845198, 1404.03755249784, 1462.1391152903598, 1476.8481978457999, 1495.6225357106798, 1530.4999541509599, 1640.12450779944, 1663.1975784746398, 3015.0391755551595, 3079.01201079628, 3101.631860440359, 3145.0655425893597, 3146.5282104625194, 3159.5205466879593, 3168.9008486350795, 3181.02107772488]

>  <ZPE_kJmol>  (1) 
333.8912309447283

>  <E_elec_kJmol>  (1) 
-713001.3099264104

>  <E0_minus_Eelec_plus_ZPE_kJmol>  (1) 
0.0

>  <rxn>  (1) 
rxn_269

>  <species_type>  (1) 
r0

>  <species_folder>  (1) 
rxn_269_Cc1ccccc1

>  <frequencies_cm1_list>  (1) 
[32.67311615255999, 208.88682644908, 346.6454189536, 414.1066827372799, 475.62800421915995, 527.95443235756, 633.69913930024, 711.73556047672, 745.6928028841199, 800.1617304423601, 861.8684605278798, 915.5202168330399, 979.4449831769199, 991.60641417864, 997.6768292015198, 1015.82627140228, 1052.7363174972797, 1058.5389200926797, 1109.8078324918, 1173.8974064833599, 1201.1112693065197, 1232.0058362611999, 1316.04400260736, 1349.7815014845198, 1404.03755249784, 1462.1391152903598, 1476.8481978457999, 1495.6225357106798, 1530.4999541509599, 1640.12450779944, 1663.1975784746398, 3015.0391755551595, 3079.01201079628, 3101.631860440359, 3145.0655425893597, 3146.5282104625194, 3159.5205466879593, 3168.9008486350795, 3181.02107772488]

>  <E0_kJmol>  (1) 
-712667

>  <H298_kJmol>  (1) 
-712649

$$$$

     RDKit          3D

  5  4  0  0  0  0  0  0  0  0999 V2000
    0.0609   -0.9143   -0.5332 H   0  0  0  0  0  0  0  0  0  1  0  0
   -0.0015    0.0226    0.0136 C   0  0  0  0  0  0  0  0  0  2  0  0
   -0.9035   -0.0480    0.6153 H   0  0  0  0  0  0  0  0  0  3  0  0
   -0.0584    0.7978   -0.7459 H   0  0  0  0  0  0  0  0  0  4  0  0
    0.9061    0.0775    0.6085 H   0  0  0  0  0  0  0  0  0  5  0  0
  1  2  1  0
  2  5  1  0
  2  3  1  0
  2  4  1  0
M  END
>  <rmg_smiles>  (2) 
C

>  <rmg_adjacency_list>  (2) 
1 H u0 p0 c0 {2,S}
2 C u0 p0 c0 {1,S} {3,S} {4,S} {5,S}
3 H u0 p0 c0 {2,S}
4 H u0 p0 c0 {2,S}
5 H u0 p0 c0 {2,S}


>  <multiplicity>  (2) 
1

>  <reaction>  (2) 
rxn_269

>  <type>  (2) 
r2h

>  <role_mapnums>  (2) 
{"r2h_a": 2, "r2h_h": 1}

>  <role_mapidx>  (2) 
{"r2h_a": 1, "r2h_h": 0}

>  <ordered_mapped_smiles>  (2) 
[H:1][C:2]([H:3])([H:4])[H:5]

>  <mol_properties>  (2) 
{"0": {"label": "a_hydrogen", "atom_type": "H0"}, "1": {"label": "acceptor", "atom_type": "Cs"}}

>  <level_of_theory>  (2) 
wb97xd/def2tzvp

>  <lot_method>  (2) 
wb97xd

>  <lot_basis>  (2) 
def2tzvp

>  <spin_multiplicity>  (2) 
1.0

>  <optical_isomers>  (2) 
1.0

>  <modes>  (2) 
IdealGasTranslation(mass=(16.0313, 'amu')),         NonlinearRotor(             inertia = ([3.18679, 3.18679, 3.18679

>  <frequency_value>  (2) 
unknown

>  <frequency_units>  (2) 
unknown

>  <frequency_list>  (2) 
unknown

>  <arkane_path>  (2) 
/home/calvin/Dropbox/PersonalFolders/Calvin/HAb_Converged/rxn_269/output/Species/rxn_269_C/arkane/output.py

>  <path_exists>  (2) 
True

>  <E0_value>  (2) 
-106268.5262916272

>  <E0_units>  (2) 
kJ/mol

>  <thermo_class>  (2) 
NASA

>  <Cp0_value>  (2) 
33.257888

>  <Cp0_units>  (2) 
J/(mol*K)

>  <CpInf_value>  (2) 
108.088136

>  <CpInf_units>  (2) 
J/(mol*K)

>  <Tmin_value>  (2) 
10.0

>  <Tmin_units>  (2) 
K

>  <Tmax_value>  (2) 
3000.0

>  <Tmax_units>  (2) 
K

>  <polynomials>  (2) 
[{"name": "polynomial1", "class": "NASAPolynomial", "Tmin_value": 10.0, "Tmin_units": "K", "Tmax_value": 616.7595780986624, "Tmax_units": "K", "coeffs": [4.041420799946622, -0.002477807655966685, 1.1290457802459216e-05, 3.700688819348292e-09, -9.366412561864162e-12, -12781153.318458663, -0.42637433538586406]}, {"name": "polynomial2", "class": "NASAPolynomial", "Tmin_value": 616.7595780986624, "Tmin_units": "K", "Tmax_value": 3000.0, "Tmax_units": "K", "coeffs": [0.6800320423470843, 0.011684066325645743, -4.5749540261290126e-06, 7.694671628924811e-10, -3.8768177461555664e-14, -12780593.404419335, 15.343675764562182]}]

>  <H298_value>  (2) 
-25396.41264990868

>  <H298_units>  (2) 
kcal/mol

>  <S298_value>  (2) 
44.46392088520575

>  <S298_units>  (2) 
cal/(mol*K)

>  <Cp_T_value_list>  (2) 
[8.621039065772948, 9.645572285350525, 10.934239595808906, 12.330144838344452, 14.859142397339834, 16.9306880471269, 20.49440393107996, 22.423230884533538, 23.291918246513866]

>  <Cp_T_units>  (2) 
cal/(mol*K)

>  <T_list>  (2) 
[300.0, 400.0, 500.0, 600.0, 800.0, 1000.0, 1500.0, 2000.0, 2400.0]

>  <T_units>  (2) 
K

>  <yaml_path>  (2) 
/home/calvin/Dropbox/PersonalFolders/Calvin/HAb_Converged/rxn_269/output/Species/rxn_269_C/rxn_269_C.yml

>  <frequencies_cm1>  (2) 
[1326.5504901469599, 1326.5504901469599, 1326.5504901469599, 1542.24249904816, 1542.24249904816, 3008.8382878112, 3127.32125252248, 3127.32125252248, 3127.32125252248]

>  <ZPE_kJmol>  (2) 
116.36640738144024

>  <E_elec_kJmol>  (2) 
-106384.89269900863

>  <E0_minus_Eelec_plus_ZPE_kJmol>  (2) 
0.0

>  <rxn>  (2) 
rxn_269

>  <species_type>  (2) 
p0

>  <species_folder>  (2) 
rxn_269_C

>  <frequencies_cm1_list>  (2) 
[1326.5504901469599, 1326.5504901469599, 1326.5504901469599, 1542.24249904816, 1542.24249904816, 3008.8382878112, 3127.32125252248, 3127.32125252248, 3127.32125252248]

>  <E0_kJmol>  (2) 
-106269

>  <H298_kJmol>  (2) 
-106259

$$$$

     RDKit          3D

 19 18  0  0  0  0  0  0  0  0999 V2000
    0.1781   -0.4718   -2.8025 C   0  0  0  0  0  0  0  0  0  1  0  0
    0.1180   -0.4945   -1.3000 C   0  0  0  0  0  0  0  0  0  2  0  0
    0.0322    0.6925   -0.5716 C   0  0  0  0  0  0  0  0  0  3  0  0
   -0.0526    0.6417    0.8011 C   0  0  0  0  0  3  0  0  0  4  0  0
   -0.0545   -0.5424    1.5048 C   0  0  0  0  0  0  0  0  0  5  0  0
    0.0348   -1.7272    0.7842 C   0  0  0  0  0  0  0  0  0  6  0  0
    0.1203   -1.6979   -0.6002 C   0  0  0  0  0  0  0  0  0  7  0  0
   -0.8280   -0.4578   -3.2291 H   0  0  0  0  0  0  0  0  0  8  0  0
    0.7008    0.4142   -3.1646 H   0  0  0  0  0  0  0  0  0  9  0  0
    0.6892   -1.3527   -3.1921 H   0  0  0  0  0  0  0  0  0 10  0  0
    0.0350    1.6461   -1.0893 H   0  0  0  0  0  0  0  0  0 11  0  0
   -0.1320    1.8187    1.4936 H   0  0  0  0  0  0  0  0  0 12  0  0
   -0.1194   -0.5534    2.5861 H   0  0  0  0  0  0  0  0  0 13  0  0
    0.0410   -2.6780    1.3036 H   0  0  0  0  0  0  0  0  0 14  0  0
    0.1929   -2.6296   -1.1496 H   0  0  0  0  0  0  0  0  0 15  0  0
   -0.2065    2.9382    2.1470 C   0  0  0  0  0  0  0  0  0 16  0  0
   -1.1085    2.8677    2.7487 H   0  0  0  0  0  0  0  0  0 17  0  0
   -0.2635    3.7134    1.3874 H   0  0  0  0  0  0  0  0  0 18  0  0
    0.7010    2.9931    2.7419 H   0  0  0  0  0  0  0  0  0 19  0  0
  1 10  1  0
  1  8  1  0
  1  9  1  0
  1  2  1  0
  2  7  1  0
  2  3  1  0
  3 11  1  0
  3  4  1  0
  4  5  1  0
  5  6  1  0
  5 13  1  0
  6 14  1  0
  6  7  1  0
  7 15  1  0
 12 16  1  0
 16 17  1  0
 16 18  1  0
 16 19  1  0
M  RAD  1   4   2
M  END
>  <rmg_smiles>  (3) 
C.CC1[CH][C][CH][CH][CH]1

>  <rmg_adjacency_list>  (3) 
multiplicity 2
1  C u0 p0 c0 {3,S} {9,S} {10,S} {11,S}
2  C u0 p0 c0 {12,S} {13,S} {14,S} {15,S}
3  C u0 p0 c0 {1,S} {4,S} {6,S}
4  C u0 p0 c0 {3,S} {5,S} {17,S}
5  C u0 p0 c0 {4,S} {7,S} {16,S}
6  C u0 p0 c0 {3,S} {8,S} {18,S}
7  C u0 p0 c0 {5,S} {8,S} {19,S}
8  C u1 p1 c0 {6,S} {7,S}
9  H u0 p0 c0 {1,S}
10 H u0 p0 c0 {1,S}
11 H u0 p0 c0 {1,S}
12 H u0 p0 c0 {2,S}
13 H u0 p0 c0 {2,S}
14 H u0 p0 c0 {2,S}
15 H u0 p0 c0 {2,S}
16 H u0 p0 c0 {5,S}
17 H u0 p0 c0 {4,S}
18 H u0 p0 c0 {6,S}
19 H u0 p0 c0 {7,S}


>  <multiplicity>  (3) 
2

>  <reaction>  (3) 
rxn_269

>  <type>  (3) 
ts

>  <role_mapnums>  (3) 
{"*2": 12, "*1": 4, "*3": 16, "*0": 17, "*4": 3}

>  <role_mapidx>  (3) 
{"*2": 11, "*1": 3, "*3": 15, "*0": 16, "*4": 2}

>  <ordered_mapped_smiles>  (3) 
[C:1]([CH:2]1[CH:3]([H:11])[CH:4][CH:5]([H:13])[CH:6]([H:14])[CH:7]1[H:15])([H:8])([H:9])[H:10].[H:12][C:16]([H:17])([H:18])[H:19]

>  <mol_properties>  (3) 
{"2": {"label": "*4", "atom_type": "Cs"}, "3": {"label": "*1", "atom_type": "C2s"}, "11": {"label": "*2", "atom_type": "H0"}, "15": {"label": "*3", "atom_type": "Cs"}, "16": {"label": "*0", "atom_type": "H0"}}

>  <level_of_theory>  (3) 
wb97xd/def2tzvp

>  <lot_method>  (3) 
wb97xd

>  <lot_basis>  (3) 
def2tzvp

>  <spin_multiplicity>  (3) 
2.0

>  <optical_isomers>  (3) 
2.0

>  <modes>  (3) 
IdealGasTranslation(mass=(107.086, 'amu')),         NonlinearRotor(             inertia = ([154.825, 382.596, 530.972

>  <frequency_value>  (3) 
-1624.47

>  <frequency_units>  (3) 
cm^-1

>  <frequency_list>  (3) 
unknown

>  <arkane_path>  (3) 
/home/calvin/Dropbox/PersonalFolders/Calvin/HAb_Converged/rxn_269/output/rxns/TS0/arkane/output.py

>  <path_exists>  (3) 
True

>  <E0_value>  (3) 
-817122.0

>  <E0_units>  (3) 
kJ/mol

>  <thermo_class>  (3) 
unknown

>  <Cp0_value>  (3) 
unknown

>  <Cp0_units>  (3) 
unknown

>  <CpInf_value>  (3) 
unknown

>  <CpInf_units>  (3) 
unknown

>  <Tmin_value>  (3) 
unknown

>  <Tmin_units>  (3) 
unknown

>  <Tmax_value>  (3) 
unknown

>  <Tmax_units>  (3) 
unknown

>  <polynomials>  (3) 
unknown

>  <H298_value>  (3) 
unknown

>  <H298_units>  (3) 
unknown

>  <S298_value>  (3) 
unknown

>  <S298_units>  (3) 
unknown

>  <Cp_T_value_list>  (3) 
unknown

>  <Cp_T_units>  (3) 
unknown

>  <T_list>  (3) 
unknown

>  <T_units>  (3) 
unknown

>  <yaml_path>  (3) 
unknown

>  <frequencies_cm1>  (3) 
unknown

>  <ZPE_kJmol>  (3) 
unknown

>  <E_elec_kJmol>  (3) 
unknown

>  <E0_minus_Eelec_plus_ZPE_kJmol>  (3) 
unknown

>  <rxn>  (3) 
unknown

>  <species_type>  (3) 
unknown

>  <species_folder>  (3) 
unknown

>  <frequencies_cm1_list>  (3) 
[]

>  <ts_imag_freq_cm1>  (3) 
-1644.1981

>  <ts_freq_out_path>  (3) 
/home/calvin/Dropbox/PersonalFolders/Calvin/HAb_Converged/rxn_269/output/rxns/TS0/geometry/freq.out

>  <E0_kJmol>  (3) 
-817122

>  <H298_kJmol>  (3) 
unknown

$$$$

     RDKit          3D

 14 14  0  0  0  0  0  0  0  0999 V2000
   -2.0198   -0.4831   -0.2544 C   0  0  0  0  0  0  0  0  0  1  0  0
   -0.5930   -0.0384   -0.0892 C   0  0  0  0  0  0  0  0  0  2  0  0
    0.2136   -0.6044    0.9057 C   0  0  0  0  0  0  0  0  0  3  0  0
    1.5090   -0.1783    0.9885 C   0  0  0  0  0  3  0  0  0  4  0  0
    2.1020    0.7599    0.1876 C   0  0  0  0  0  0  0  0  0  5  0  0
    1.2904    1.3193   -0.7968 C   0  0  0  0  0  0  0  0  0  6  0  0
   -0.0334    0.9223   -0.9266 C   0  0  0  0  0  0  0  0  0  7  0  0
   -2.5042   -0.6236    0.7128 H   0  0  0  0  0  0  0  0  0  8  0  0
   -2.5978    0.2454   -0.8229 H   0  0  0  0  0  0  0  0  0  9  0  0
   -2.0679   -1.4358   -0.7874 H   0  0  0  0  0  0  0  0  0 10  0  0
   -0.1900   -1.3517    1.5798 H   0  0  0  0  0  0  0  0  0 11  0  0
    3.1355    1.0599    0.3036 H   0  0  0  0  0  0  0  0  0 12  0  0
    1.6958    2.0714   -1.4633 H   0  0  0  0  0  0  0  0  0 13  0  0
   -0.6482    1.3723   -1.6972 H   0  0  0  0  0  0  0  0  0 14  0  0
  1 10  1  0
  1  8  1  0
  1  9  1  0
  1  2  1  0
  2  7  1  0
  2  3  1  0
  3  4  1  0
  3 11  1  0
  4  5  1  0
  5 12  1  0
  5  6  1  0
  6 13  1  0
  6  7  1  0
  7 14  1  0
M  RAD  1   4   2
M  END
>  <rmg_smiles>  (4) 
CC1[CH][C][CH][CH][CH]1

>  <rmg_adjacency_list>  (4) 
multiplicity 2
1  C u0 p0 c0 {2,S} {8,S} {9,S} {10,S}
2  C u0 p0 c0 {1,S} {3,S} {5,S}
3  C u0 p0 c0 {2,S} {4,S} {12,S}
4  C u0 p0 c0 {3,S} {6,S} {11,S}
5  C u0 p0 c0 {2,S} {7,S} {13,S}
6  C u0 p0 c0 {4,S} {7,S} {14,S}
7  C u1 p1 c0 {5,S} {6,S}
8  H u0 p0 c0 {1,S}
9  H u0 p0 c0 {1,S}
10 H u0 p0 c0 {1,S}
11 H u0 p0 c0 {4,S}
12 H u0 p0 c0 {3,S}
13 H u0 p0 c0 {5,S}
14 H u0 p0 c0 {6,S}


>  <multiplicity>  (4) 
2

>  <reaction>  (4) 
rxn_269

>  <type>  (4) 
r1

>  <role_mapnums>  (4) 
{}

>  <role_mapidx>  (4) 
{}

>  <ordered_mapped_smiles>  (4) 
[C:1]([CH:2]1[CH:3]([H:11])[CH:4][CH:5]([H:12])[CH:6]([H:13])[CH:7]1[H:14])([H:8])([H:9])[H:10]

>  <level_of_theory>  (4) 
wb97xd/def2tzvp

>  <lot_method>  (4) 
wb97xd

>  <lot_basis>  (4) 
def2tzvp

>  <spin_multiplicity>  (4) 
2.0

>  <optical_isomers>  (4) 
2.0

>  <modes>  (4) 
IdealGasTranslation(mass=(91.0548, 'amu')),         NonlinearRotor(             inertia = ([84.0639, 196.987, 277.917

>  <frequency_value>  (4) 
unknown

>  <frequency_units>  (4) 
unknown

>  <frequency_list>  (4) 
unknown

>  <arkane_path>  (4) 
/home/calvin/Dropbox/PersonalFolders/Calvin/HAb_Converged/rxn_269/output/Species/rxn_269_Cc1c[c]ccc1/arkane/output.py

>  <path_exists>  (4) 
True

>  <E0_value>  (4) 
-710888.3062834864

>  <E0_units>  (4) 
kJ/mol

>  <thermo_class>  (4) 
NASA

>  <Cp0_value>  (4) 
33.257888

>  <Cp0_units>  (4) 
J/(mol*K)

>  <CpInf_value>  (4) 
332.57888

>  <CpInf_units>  (4) 
J/(mol*K)

>  <Tmin_value>  (4) 
10.0

>  <Tmin_units>  (4) 
K

>  <Tmax_value>  (4) 
3000.0

>  <Tmax_units>  (4) 
K

>  <polynomials>  (4) 
[{"name": "polynomial1", "class": "NASAPolynomial", "Tmin_value": 10.0, "Tmin_units": "K", "Tmax_value": 430.8407105796925, "Tmax_units": "K", "coeffs": [3.950501012668528, 0.003116399187062866, 0.00016197401921780666, -2.997051322065004e-07, 1.7957327782162483e-10, -85500112.69263943, 13.875224473168723]}, {"name": "polynomial2", "class": "NASAPolynomial", "Tmin_value": 430.8407105796925, "Tmin_units": "K", "Tmax_value": 3000.0, "Tmax_units": "K", "coeffs": [-2.2909370894465715, 0.061054711618574196, -3.9713151503927714e-05, 1.2333366020404323e-08, -1.4645554898064376e-12, -85499574.80263674, 38.73205162645326]}]

>  <H298_value>  (4) 
-169901.93250537876

>  <H298_units>  (4) 
kcal/mol

>  <S298_value>  (4) 
83.8850195559198

>  <S298_units>  (4) 
cal/(mol*K)

>  <Cp_T_value_list>  (4) 
[25.487090817186075, 32.84624058452445, 39.263756388174336, 44.750610658849936, 53.358912418047694, 59.45609286700315, 67.8578112815732, 71.93671726886951, 74.31880817444016]

>  <Cp_T_units>  (4) 
cal/(mol*K)

>  <T_list>  (4) 
[300.0, 400.0, 500.0, 600.0, 800.0, 1000.0, 1500.0, 2000.0, 2400.0]

>  <T_units>  (4) 
K

>  <yaml_path>  (4) 
/home/calvin/Dropbox/PersonalFolders/Calvin/HAb_Converged/rxn_269/output/Species/rxn_269_Cc1c[c]ccc1/rxn_269_Cc1ccccc1.yml

>  <frequencies_cm1>  (4) 
[15.22410645444, 206.66192320539997, 348.57504182852, 419.03031121172, 484.51388322324, 517.5234816564799, 624.3325713237599, 676.1096406365599, 762.7366604483599, 791.09730981996, 865.3225541438399, 896.45746558472, 978.8887573659999, 993.2064217581999, 999.5927181058, 1055.82646089128, 1058.73119568164, 1096.7399594278397, 1173.85620457144, 1210.6769798572798, 1295.23703708776, 1296.8027097407198, 1402.7740271989599, 1434.15615011136, 1474.3074132773997, 1480.26795653516, 1490.1289474546797, 1578.11563035984, 1650.994945561, 3016.4263065897994, 3080.8592298473595, 3103.18379912268, 3147.54452428988, 3147.7574008347997, 3162.3978135370403, 3174.9437957166797]

>  <ZPE_kJmol>  (4) 
299.7304356118552

>  <E_elec_kJmol>  (4) 
-711188.0367190983

>  <E0_minus_Eelec_plus_ZPE_kJmol>  (4) 
0.0

>  <rxn>  (4) 
rxn_269

>  <species_type>  (4) 
p1

>  <species_folder>  (4) 
rxn_269_Cc1c[c]ccc1

>  <frequencies_cm1_list>  (4) 
[15.22410645444, 206.66192320539997, 348.57504182852, 419.03031121172, 484.51388322324, 517.5234816564799, 624.3325713237599, 676.1096406365599, 762.7366604483599, 791.09730981996, 865.3225541438399, 896.45746558472, 978.8887573659999, 993.2064217581999, 999.5927181058, 1055.82646089128, 1058.73119568164, 1096.7399594278397, 1173.85620457144, 1210.6769798572798, 1295.23703708776, 1296.8027097407198, 1402.7740271989599, 1434.15615011136, 1474.3074132773997, 1480.26795653516, 1490.1289474546797, 1578.11563035984, 1650.994945561, 3016.4263065897994, 3080.8592298473595, 3103.18379912268, 3147.54452428988, 3147.7574008347997, 3162.3978135370403, 3174.9437957166797]

>  <E0_kJmol>  (4) 
-710888

>  <H298_kJmol>  (4) 
-710870

$$$$

     RDKit          3D

  4  3  0  0  0  0  0  0  0  0999 V2000
    0.0000    0.0000    0.0000 C   0  0  0  0  0  3  0  0  0  1  0  0
    1.0638   -0.1747    0.0540 H   0  0  0  0  0  0  0  0  0  2  0  0
   -0.6833   -0.8351   -0.0280 H   0  0  0  0  0  0  0  0  0  3  0  0
   -0.3805    1.0098   -0.0260 H   0  0  0  0  0  0  0  0  0  4  0  0
  1  3  1  0
  1  4  1  0
  1  2  1  0
M  RAD  1   1   2
M  END
>  <rmg_smiles>  (5) 
[CH3]

>  <rmg_adjacency_list>  (5) 
multiplicity 2
1 C u1 p0 c0 {2,S} {3,S} {4,S}
2 H u0 p0 c0 {1,S}
3 H u0 p0 c0 {1,S}
4 H u0 p0 c0 {1,S}


>  <multiplicity>  (5) 
2

>  <reaction>  (5) 
rxn_269

>  <type>  (5) 
r2

>  <role_mapnums>  (5) 
{}

>  <role_mapidx>  (5) 
{}

>  <ordered_mapped_smiles>  (5) 
[C:1]([H:2])([H:3])[H:4]

>  <level_of_theory>  (5) 
wb97xd/def2tzvp

>  <lot_method>  (5) 
wb97xd

>  <lot_basis>  (5) 
def2tzvp

>  <spin_multiplicity>  (5) 
2.0

>  <optical_isomers>  (5) 
1.0

>  <modes>  (5) 
IdealGasTranslation(mass=(15.0235, 'amu')),         NonlinearRotor(             inertia = ([1.76141, 1.76141, 3.52282

>  <frequency_value>  (5) 
unknown

>  <frequency_units>  (5) 
unknown

>  <frequency_list>  (5) 
unknown

>  <arkane_path>  (5) 
/home/calvin/Dropbox/PersonalFolders/Calvin/HAb_Converged/rxn_269/output/Species/rxn_269_[CH3]/arkane/output.py

>  <path_exists>  (5) 
True

>  <E0_value>  (5) 
-104520.13119505512

>  <E0_units>  (5) 
kJ/mol

>  <thermo_class>  (5) 
NASA

>  <Cp0_value>  (5) 
33.257888

>  <Cp0_units>  (5) 
J/(mol*K)

>  <CpInf_value>  (5) 
83.14472

>  <CpInf_units>  (5) 
J/(mol*K)

>  <Tmin_value>  (5) 
10.0

>  <Tmin_units>  (5) 
K

>  <Tmax_value>  (5) 
3000.0

>  <Tmax_units>  (5) 
K

>  <polynomials>  (5) 
[{"name": "polynomial1", "class": "NASAPolynomial", "Tmin_value": 10.0, "Tmin_units": "K", "Tmax_value": 646.6680568167106, "Tmax_units": "K", "coeffs": [3.9912271000461548, 0.0004274218009639198, 9.38132315134313e-06, -1.0944874554220949e-08, 4.263406085556096e-12, -12570867.748368958, 0.20527673099681187]}, {"name": "polynomial2", "class": "NASAPolynomial", "Tmin_value": 646.6680568167106, "Tmin_units": "K", "Tmax_value": 3000.0, "Tmax_units": "K", "coeffs": [3.2488827598675174, 0.0050187516265713635, -1.2675301815554908e-06, 3.215102013021586e-11, 2.0164394281080815e-14, -12570771.728238096, 3.4631324604304954]}]

>  <H298_value>  (5) 
-24978.383291331436

>  <H298_units>  (5) 
kcal/mol

>  <S298_value>  (5) 
46.49953999396709

>  <S298_units>  (5) 
cal/(mol*K)

>  <Cp_T_value_list>  (5) 
[9.345424201068383, 10.07887042200736, 10.827537754048599, 11.552428339520182, 12.871902382304132, 14.014614114932202, 16.167234911840477, 17.479674567657305, 18.096247059343543]

>  <Cp_T_units>  (5) 
cal/(mol*K)

>  <T_list>  (5) 
[300.0, 400.0, 500.0, 600.0, 800.0, 1000.0, 1500.0, 2000.0, 2400.0]

>  <T_units>  (5) 
K

>  <yaml_path>  (5) 
/home/calvin/Dropbox/PersonalFolders/Calvin/HAb_Converged/rxn_269/output/Species/rxn_269_[CH3]/rxn_269_CH3.yml

>  <frequencies_cm1>  (5) 
[520.22220688724, 1393.4280601784399, 1393.43492716376, 3088.8592677451597, 3268.6163424668, 3268.6232094521197]

>  <ZPE_kJmol>  (5) 
77.35764153782172

>  <E_elec_kJmol>  (5) 
-104597.48883659294

>  <E0_minus_Eelec_plus_ZPE_kJmol>  (5) 
0.0

>  <rxn>  (5) 
rxn_269

>  <species_type>  (5) 
r1

>  <species_folder>  (5) 
rxn_269_[CH3]

>  <frequencies_cm1_list>  (5) 
[520.22220688724, 1393.4280601784399, 1393.43492716376, 3088.8592677451597, 3268.6163424668, 3268.6232094521197]

>  <E0_kJmol>  (5) 
-104520

>  <H298_kJmol>  (5) 
-104510

$$$$
