
     RDKit          3D

 10  9  0  0  0  0  0  0  0  0999 V2000
    0.0703    0.8623    0.9616 C   0  0  0  0  0  0  0  0  0  1  0  0
   -0.0218   -0.4818    0.2836 C   0  0  0  0  0  0  0  0  0  2  0  0
   -0.0223   -0.4586   -1.1705 N   0  0  0  0  0  0  0  0  0  3  0  0
   -0.8316    1.3961    0.6649 H   0  0  0  0  0  0  0  0  0  4  0  0
    0.8663    1.5114    0.5986 H   0  0  0  0  0  0  0  0  0  5  0  0
    0.0033    0.8502    2.0484 H   0  0  0  0  0  0  0  0  0  6  0  0
   -0.9264   -0.9971    0.6164 H   0  0  0  0  0  0  0  0  0  7  0  0
    0.8154   -1.1084    0.6124 H   0  0  0  0  0  0  0  0  0  8  0  0
    0.8203   -0.0222   -1.5213 H   0  0  0  0  0  0  0  0  0  9  0  0
   -0.8035    0.0860   -1.5129 H   0  0  0  0  0  0  0  0  0 10  0  0
  1  5  1  0
  1  4  1  0
  1  6  1  0
  1  2  1  0
  2  3  1  0
  2  8  1  0
  2  7  1  0
  3  9  1  0
  3 10  1  0
M  END
>  <rmg_smiles>  (1) 
CCN

>  <rmg_adjacency_list>  (1) 
1  N u0 p1 c0 {2,S} {9,S} {10,S}
2  C u0 p0 c0 {1,S} {3,S} {4,S} {5,S}
3  C u0 p0 c0 {2,S} {6,S} {7,S} {8,S}
4  H u0 p0 c0 {2,S}
5  H u0 p0 c0 {2,S}
6  H u0 p0 c0 {3,S}
7  H u0 p0 c0 {3,S}
8  H u0 p0 c0 {3,S}
9  H u0 p0 c0 {1,S}
10 H u0 p0 c0 {1,S}


>  <multiplicity>  (1) 
1

>  <reaction>  (1) 
rxn_111

>  <type>  (1) 
r1h

>  <role_mapnums>  (1) 
{"r1h_a": 1, "r1h_h": 4}

>  <role_mapidx>  (1) 
{"r1h_a": 0, "r1h_h": 3}

>  <ordered_mapped_smiles>  (1) 
[C:1]([C:2]([N:3]([H:9])[H:10])([H:7])[H:8])([H:4])([H:5])[H:6]

>  <mol_properties>  (1) 
{"0": {"label": "donator", "atom_type": "Cs"}, "3": {"label": "d_hydrogen", "atom_type": "H0"}}

>  <level_of_theory>  (1) 
wb97xd/def2tzvp

>  <lot_method>  (1) 
wb97xd

>  <lot_basis>  (1) 
def2tzvp

>  <spin_multiplicity>  (1) 
1.0

>  <optical_isomers>  (1) 
1.0

>  <modes>  (1) 
IdealGasTranslation(mass=(45.0579, 'amu')),         NonlinearRotor(             inertia = ([15.7277, 57.3635, 64.2089

>  <frequency_value>  (1) 
unknown

>  <frequency_units>  (1) 
unknown

>  <frequency_list>  (1) 
unknown

>  <arkane_path>  (1) 
/home/calvin/Dropbox/PersonalFolders/Calvin/HAb_Converged/rxn_111/output/Species/rxn_111_CCN/arkane/output.py

>  <path_exists>  (1) 
True

>  <E0_value>  (1) 
-354689.84818470286

>  <E0_units>  (1) 
kJ/mol

>  <thermo_class>  (1) 
NASA

>  <Cp0_value>  (1) 
33.257888

>  <Cp0_units>  (1) 
J/(mol*K)

>  <CpInf_value>  (1) 
232.805216

>  <CpInf_units>  (1) 
J/(mol*K)

>  <Tmin_value>  (1) 
10.0

>  <Tmin_units>  (1) 
K

>  <Tmax_value>  (1) 
3000.0

>  <Tmax_units>  (1) 
K

>  <polynomials>  (1) 
[{"name": "polynomial1", "class": "NASAPolynomial", "Tmin_value": 10.0, "Tmin_units": "K", "Tmax_value": 549.7769733558987, "Tmax_units": "K", "coeffs": [3.978502637787712, 0.0017919643352501413, 6.861727884324767e-05, -1.0050224262377416e-07, 4.7413949587236435e-11, -42659334.4958342, 7.218737236497344]}, {"name": "polynomial2", "class": "NASAPolynomial", "Tmin_value": 549.7769733558987, "Tmin_units": "K", "Tmax_value": 3000.0, "Tmax_units": "K", "coeffs": [-0.4004249279364886, 0.033651417390805606, -1.8306808195141843e-05, 4.902327657624583e-09, -5.163356805599726e-13, -42658853.00592058, 25.724899679540332]}]

>  <H298_value>  (1) 
-84769.53933941506

>  <H298_units>  (1) 
kcal/mol

>  <S298_value>  (1) 
64.92664026144718

>  <S298_units>  (1) 
cal/(mol*K)

>  <Cp_T_value_list>  (1) 
[16.61729792675961, 20.777648064652308, 24.699776608588017, 28.202355622698988, 33.98689948562485, 38.41305189827611, 45.34365899763087, 48.94971995331861, 50.782586135633935]

>  <Cp_T_units>  (1) 
cal/(mol*K)

>  <T_list>  (1) 
[300.0, 400.0, 500.0, 600.0, 800.0, 1000.0, 1500.0, 2000.0, 2400.0]

>  <T_units>  (1) 
K

>  <yaml_path>  (1) 
/home/calvin/Dropbox/PersonalFolders/Calvin/HAb_Converged/rxn_111/output/Species/rxn_111_CCN/rxn_111_CCN.yml

>  <frequencies_cm1>  (1) 
[246.98486100443998, 284.44426592504, 404.4929032892799, 777.63801859276, 840.63574191844, 892.5364169669999, 1003.2871562079599, 1071.39391661172, 1149.12819043412, 1262.16563578664, 1372.6691635560799, 1379.0485929183599, 1398.4134915207599, 1475.28939217816, 1479.96580918108, 1492.8894755533202, 1650.9880785756798, 3000.7489791042394, 3017.20227593096, 3048.6874036231598, 3078.2154404991597, 3080.0832605062, 3485.1873254889597, 3564.0683858597995]

>  <ZPE_kJmol>  (1) 
241.98166850213624

>  <E_elec_kJmol>  (1) 
-354931.829853205

>  <E0_minus_Eelec_plus_ZPE_kJmol>  (1) 
0.0

>  <rxn>  (1) 
rxn_111

>  <species_type>  (1) 
r0

>  <species_folder>  (1) 
rxn_111_CCN

>  <frequencies_cm1_list>  (1) 
[246.98486100443998, 284.44426592504, 404.4929032892799, 777.63801859276, 840.63574191844, 892.5364169669999, 1003.2871562079599, 1071.39391661172, 1149.12819043412, 1262.16563578664, 1372.6691635560799, 1379.0485929183599, 1398.4134915207599, 1475.28939217816, 1479.96580918108, 1492.8894755533202, 1650.9880785756798, 3000.7489791042394, 3017.20227593096, 3048.6874036231598, 3078.2154404991597, 3080.0832605062, 3485.1873254889597, 3564.0683858597995]

>  <E0_kJmol>  (1) 
-354690

>  <H298_kJmol>  (1) 
-354676

$$$$

     RDKit          3D

  2  1  0  0  0  0  0  0  0  0999 V2000
    0.2311   -0.1167    0.0826 H   0  0  0  0  0  0  0  0  0  1  0  0
   -0.3982    0.2010   -0.1424 H   0  0  0  0  0  0  0  0  0  2  0  0
  1  2  1  0
M  END
>  <rmg_smiles>  (2) 
[H][H]

>  <rmg_adjacency_list>  (2) 
1 H u0 p0 c0 {2,S}
2 H u0 p0 c0 {1,S}


>  <multiplicity>  (2) 
1

>  <reaction>  (2) 
rxn_111

>  <type>  (2) 
r2h

>  <role_mapnums>  (2) 
{"r2h_a": 2, "r2h_h": 1}

>  <role_mapidx>  (2) 
{"r2h_a": 1, "r2h_h": 0}

>  <ordered_mapped_smiles>  (2) 
[H:1][H:2]

>  <mol_properties>  (2) 
{"0": {"label": "a_hydrogen", "atom_type": "H0"}, "1": {"label": "acceptor", "atom_type": "H0"}}

>  <level_of_theory>  (2) 
wb97xd/def2tzvp

>  <lot_method>  (2) 
wb97xd

>  <lot_basis>  (2) 
def2tzvp

>  <spin_multiplicity>  (2) 
1.0

>  <optical_isomers>  (2) 
1.0

>  <modes>  (2) 
IdealGasTranslation(mass=(2.01565, 'amu')),         LinearRotor(inertia=(0.279051, 'amu*angstrom^2'), symmetry=2),         HarmonicOscillator(frequencies=([4384.98

>  <frequency_value>  (2) 
unknown

>  <frequency_units>  (2) 
unknown

>  <frequency_list>  (2) 
unknown

>  <arkane_path>  (2) 
/home/calvin/Dropbox/PersonalFolders/Calvin/HAb_Converged/rxn_111/output/Species/rxn_111_[H][H]/arkane/output.py

>  <path_exists>  (2) 
True

>  <E0_value>  (2) 
-3062.16965545063

>  <E0_units>  (2) 
kJ/mol

>  <thermo_class>  (2) 
NASA

>  <Cp0_value>  (2) 
29.100652

>  <Cp0_units>  (2) 
J/(mol*K)

>  <CpInf_value>  (2) 
37.415124

>  <CpInf_units>  (2) 
J/(mol*K)

>  <Tmin_value>  (2) 
10.0

>  <Tmin_units>  (2) 
K

>  <Tmax_value>  (2) 
3000.0

>  <Tmax_units>  (2) 
K

>  <polynomials>  (2) 
[{"name": "polynomial1", "class": "NASAPolynomial", "Tmin_value": 10.0, "Tmin_units": "K", "Tmax_value": 609.8839760798177, "Tmax_units": "K", "coeffs": [3.498630427760662, 8.118128927195725e-05, -2.559636751505851e-07, 1.12469612407288e-11, 3.0815171130046294e-13, -368293.8823611774, -4.277290681887199]}, {"name": "polynomial2", "class": "NASAPolynomial", "Tmin_value": 609.8839760798177, "Tmin_units": "K", "Tmax_value": 3000.0, "Tmax_units": "K", "coeffs": [3.686867766797846, -0.0007828622299568348, 9.578139376048542e-07, -3.193665739780837e-10, 3.533006631714403e-14, -368323.7341208647, -5.148841965058497]}]

>  <H298_value>  (2) 
-729.8011438890577

>  <H298_units>  (2) 
kcal/mol

>  <S298_value>  (2) 
31.136082854374543

>  <S298_units>  (2) 
cal/(mol*K)

>  <Cp_T_value_list>  (2) 
[6.960683160805141, 6.952753142081975, 6.947066275630451, 6.950370161364484, 7.003977696739648, 7.10979357060473, 7.489089863592967, 7.874797646413975, 8.112273708870758]

>  <Cp_T_units>  (2) 
cal/(mol*K)

>  <T_list>  (2) 
[300.0, 400.0, 500.0, 600.0, 800.0, 1000.0, 1500.0, 2000.0, 2400.0]

>  <T_units>  (2) 
K

>  <yaml_path>  (2) 
/home/calvin/Dropbox/PersonalFolders/Calvin/HAb_Converged/rxn_111/output/Species/rxn_111_[H][H]/rxn_111_HH.yml

>  <frequencies_cm1>  (2) 
[4384.97527895388]

>  <ZPE_kJmol>  (2) 
26.22798418526521

>  <E_elec_kJmol>  (2) 
-3088.3976396358958

>  <E0_minus_Eelec_plus_ZPE_kJmol>  (2) 
0.0

>  <rxn>  (2) 
rxn_111

>  <species_type>  (2) 
p1

>  <species_folder>  (2) 
rxn_111_[H][H]

>  <frequencies_cm1_list>  (2) 
[4384.97527895388]

>  <E0_kJmol>  (2) 
-3062.17

>  <H298_kJmol>  (2) 
-3053.49

$$$$

     RDKit          3D

 11  9  0  0  0  0  0  0  0  0999 V2000
    0.1242    0.8239    0.9618 C   0  0  0  0  0  0  0  0  0  1  0  0
    0.0322   -0.5202    0.2838 C   0  0  0  0  0  0  0  0  0  2  0  0
    0.0316   -0.4970   -1.1702 N   0  0  0  0  0  0  0  0  0  3  0  0
   -0.9888    1.4826    0.5957 H   0  0  0  0  0  0  0  0  0  4  0  0
    0.9202    1.4729    0.5988 H   0  0  0  0  0  0  0  0  0  5  0  0
    0.0572    0.8118    2.0486 H   0  0  0  0  0  0  0  0  0  6  0  0
   -0.8725   -1.0356    0.6167 H   0  0  0  0  0  0  0  0  0  7  0  0
    0.8693   -1.1468    0.6126 H   0  0  0  0  0  0  0  0  0  8  0  0
    0.8743   -0.0606   -1.5210 H   0  0  0  0  0  0  0  0  0  9  0  0
   -0.7496    0.0476   -1.5126 H   0  0  0  0  0  0  0  0  0 10  0  0
   -1.7852    1.8846    0.3110 H   0  0  0  0  0 15  0  0  0 11  0  0
  1  5  1  0
  1  4  1  0
  1  6  1  0
  1  2  1  0
  2  3  1  0
  2  8  1  0
  2  7  1  0
  3  9  1  0
  3 10  1  0
M  END
>  <rmg_smiles>  (3) 
CCN

>  <rmg_adjacency_list>  (3) 
multiplicity 2
1  N u0 p1 c0 {2,S} {9,S} {10,S}
2  C u0 p0 c0 {1,S} {3,S} {4,S} {5,S}
3  C u0 p0 c0 {2,S} {6,S} {7,S} {8,S}
4  H u0 p0 c0 {2,S}
5  H u0 p0 c0 {2,S}
6  H u0 p0 c0 {3,S}
7  H u0 p0 c0 {3,S}
8  H u0 p0 c0 {3,S}
9  H u0 p0 c0 {1,S}
10 H u0 p0 c0 {1,S}
11 H u1 p0 c0


>  <multiplicity>  (3) 
2

>  <reaction>  (3) 
rxn_111

>  <type>  (3) 
ts

>  <role_mapnums>  (3) 
{"*2": 4, "*1": 1, "*3": 11, "*0": null, "*4": 2}

>  <role_mapidx>  (3) 
{"*2": 3, "*1": 0, "*3": 10, "*4": 1}

>  <ordered_mapped_smiles>  (3) 
[C:1]([C:2]([N:3]([H:9])[H:10])([H:7])[H:8])([H:4])([H:5])[H:6].[H:11]

>  <mol_properties>  (3) 
{"0": {"label": "*1", "atom_type": "Cs"}, "1": {"label": "*4", "atom_type": "Cs"}, "3": {"label": "*2", "atom_type": "H0"}, "10": {"label": "*3", "atom_type": "H0"}}

>  <level_of_theory>  (3) 
wb97xd/def2tzvp

>  <lot_method>  (3) 
wb97xd

>  <lot_basis>  (3) 
def2tzvp

>  <spin_multiplicity>  (3) 
2.0

>  <optical_isomers>  (3) 
2.0

>  <modes>  (3) 
IdealGasTranslation(mass=(46.0657, 'amu')),         NonlinearRotor(             inertia = ([21.6849, 61.1208, 68.6287

>  <frequency_value>  (3) 
-1283.52

>  <frequency_units>  (3) 
cm^-1

>  <frequency_list>  (3) 
unknown

>  <arkane_path>  (3) 
/home/calvin/Dropbox/PersonalFolders/Calvin/HAb_Converged/rxn_111/output/rxns/TS0/arkane/output.py

>  <path_exists>  (3) 
True

>  <E0_value>  (3) 
-355971.0

>  <E0_units>  (3) 
kJ/mol

>  <thermo_class>  (3) 
unknown

>  <Cp0_value>  (3) 
unknown

>  <Cp0_units>  (3) 
unknown

>  <CpInf_value>  (3) 
unknown

>  <CpInf_units>  (3) 
unknown

>  <Tmin_value>  (3) 
unknown

>  <Tmin_units>  (3) 
unknown

>  <Tmax_value>  (3) 
unknown

>  <Tmax_units>  (3) 
unknown

>  <polynomials>  (3) 
unknown

>  <H298_value>  (3) 
unknown

>  <H298_units>  (3) 
unknown

>  <S298_value>  (3) 
unknown

>  <S298_units>  (3) 
unknown

>  <Cp_T_value_list>  (3) 
unknown

>  <Cp_T_units>  (3) 
unknown

>  <T_list>  (3) 
unknown

>  <T_units>  (3) 
unknown

>  <yaml_path>  (3) 
unknown

>  <frequencies_cm1>  (3) 
unknown

>  <ZPE_kJmol>  (3) 
unknown

>  <E_elec_kJmol>  (3) 
unknown

>  <E0_minus_Eelec_plus_ZPE_kJmol>  (3) 
unknown

>  <rxn>  (3) 
unknown

>  <species_type>  (3) 
unknown

>  <species_folder>  (3) 
unknown

>  <frequencies_cm1_list>  (3) 
[]

>  <ts_imag_freq_cm1>  (3) 
-1299.1052

>  <ts_freq_out_path>  (3) 
/home/calvin/Dropbox/PersonalFolders/Calvin/HAb_Converged/rxn_111/output/rxns/TS0/geometry/freq.out

>  <E0_kJmol>  (3) 
-355971

>  <H298_kJmol>  (3) 
unknown

$$$$

     RDKit          3D

  9  8  0  0  0  0  0  0  0  0999 V2000
   -1.2868    0.1766    0.0689 C   0  0  0  0  0  3  0  0  0  1  0  0
    0.0524   -0.4053   -0.2125 C   0  0  0  0  0  0  0  0  0  2  0  0
    0.4381   -0.4743   -1.6185 N   0  0  0  0  0  0  0  0  0  3  0  0
   -2.0993    0.0348   -0.6334 H   0  0  0  0  0  0  0  0  0  4  0  0
   -1.5107    0.6312    1.0255 H   0  0  0  0  0  0  0  0  0  5  0  0
    0.1170   -1.4256    0.1926 H   0  0  0  0  0  0  0  0  0  6  0  0
    0.8199    0.1594    0.3261 H   0  0  0  0  0  0  0  0  0  7  0  0
   -0.1822   -1.0926   -2.1251 H   0  0  0  0  0  0  0  0  0  8  0  0
    0.3552    0.4394   -2.0455 H   0  0  0  0  0  0  0  0  0  9  0  0
  1  5  1  0
  1  4  1  0
  1  2  1  0
  2  3  1  0
  2  7  1  0
  2  6  1  0
  3  9  1  0
  3  8  1  0
M  RAD  1   1   2
M  END
>  <rmg_smiles>  (4) 
[CH2]CN

>  <rmg_adjacency_list>  (4) 
multiplicity 2
1 N u0 p1 c0 {2,S} {8,S} {9,S}
2 C u0 p0 c0 {1,S} {3,S} {4,S} {5,S}
3 C u1 p0 c0 {2,S} {6,S} {7,S}
4 H u0 p0 c0 {2,S}
5 H u0 p0 c0 {2,S}
6 H u0 p0 c0 {3,S}
7 H u0 p0 c0 {3,S}
8 H u0 p0 c0 {1,S}
9 H u0 p0 c0 {1,S}


>  <multiplicity>  (4) 
2

>  <reaction>  (4) 
rxn_111

>  <type>  (4) 
r1

>  <role_mapnums>  (4) 
{}

>  <role_mapidx>  (4) 
{}

>  <ordered_mapped_smiles>  (4) 
[C:1]([C:2]([N:3]([H:8])[H:9])([H:6])[H:7])([H:4])[H:5]

>  <level_of_theory>  (4) 
wb97xd/def2tzvp

>  <lot_method>  (4) 
wb97xd

>  <lot_basis>  (4) 
def2tzvp

>  <spin_multiplicity>  (4) 
2.0

>  <optical_isomers>  (4) 
2.0

>  <modes>  (4) 
IdealGasTranslation(mass=(44.05, 'amu')),         NonlinearRotor(             inertia = ([14.0571, 53.5528, 61.2043

>  <frequency_value>  (4) 
unknown

>  <frequency_units>  (4) 
unknown

>  <frequency_list>  (4) 
unknown

>  <arkane_path>  (4) 
/home/calvin/Dropbox/PersonalFolders/Calvin/HAb_Converged/rxn_111/output/Species/rxn_111_[CH2]CN/arkane/output.py

>  <path_exists>  (4) 
True

>  <E0_value>  (4) 
-352957.1397909773

>  <E0_units>  (4) 
kJ/mol

>  <thermo_class>  (4) 
NASA

>  <Cp0_value>  (4) 
33.257888

>  <Cp0_units>  (4) 
J/(mol*K)

>  <CpInf_value>  (4) 
207.8618

>  <CpInf_units>  (4) 
J/(mol*K)

>  <Tmin_value>  (4) 
10.0

>  <Tmin_units>  (4) 
K

>  <Tmax_value>  (4) 
3000.0

>  <Tmax_units>  (4) 
K

>  <polynomials>  (4) 
[{"name": "polynomial1", "class": "NASAPolynomial", "Tmin_value": 10.0, "Tmin_units": "K", "Tmax_value": 397.8613282502306, "Tmax_units": "K", "coeffs": [3.8989834274699104, 0.007644531125260831, 5.812022955721731e-05, -1.1786489215501857e-07, 7.608681734282783e-11, -42450935.962480225, 8.690454660107354]}, {"name": "polynomial2", "class": "NASAPolynomial", "Tmin_value": 397.8613282502306, "Tmin_units": "K", "Tmax_value": 3000.0, "Tmax_units": "K", "coeffs": [1.9822788703812126, 0.026914473368460406, -1.4529987842923317e-05, 3.868831137833528e-09, -4.0520798932584216e-13, -42450783.4448935, 16.17092542112593]}]

>  <H298_value>  (4) 
-84355.16435451215

>  <H298_units>  (4) 
kcal/mol

>  <S298_value>  (4) 
69.29856262285197

>  <S298_units>  (4) 
cal/(mol*K)

>  <Cp_T_value_list>  (4) 
[17.60091562835461, 21.18461893984012, 24.373677908279404, 27.191582137450453, 31.85399356763014, 35.43266204284861, 41.07050276387769, 44.03370504766593, 45.55308842803519]

>  <Cp_T_units>  (4) 
cal/(mol*K)

>  <T_list>  (4) 
[300.0, 400.0, 500.0, 600.0, 800.0, 1000.0, 1500.0, 2000.0, 2400.0]

>  <T_units>  (4) 
K

>  <yaml_path>  (4) 
/home/calvin/Dropbox/PersonalFolders/Calvin/HAb_Converged/rxn_111/output/Species/rxn_111_[CH2]CN/rxn_111_CH2CN.yml

>  <frequencies_cm1>  (4) 
[127.27957290619997, 263.2115473156, 405.0216611589199, 490.47442648099997, 799.9488538974399, 851.62291843044, 921.9271141365998, 1070.1509922687999, 1117.8559392868399, 1167.3875044, 1353.4690726013598, 1367.8828747880398, 1444.8274452986398, 1455.00431754288, 1650.2189762198398, 2950.9770695048796, 3021.5353436678797, 3113.97870004572, 3220.05302228376, 3487.92725263164, 3567.48814454916]

>  <ZPE_kJmol>  (4) 
202.45750980436225

>  <E_elec_kJmol>  (4) 
-353159.59730078164

>  <E0_minus_Eelec_plus_ZPE_kJmol>  (4) 
0.0

>  <rxn>  (4) 
rxn_111

>  <species_type>  (4) 
p0

>  <species_folder>  (4) 
rxn_111_[CH2]CN

>  <frequencies_cm1_list>  (4) 
[127.27957290619997, 263.2115473156, 405.0216611589199, 490.47442648099997, 799.9488538974399, 851.62291843044, 921.9271141365998, 1070.1509922687999, 1117.8559392868399, 1167.3875044, 1353.4690726013598, 1367.8828747880398, 1444.8274452986398, 1455.00431754288, 1650.2189762198398, 2950.9770695048796, 3021.5353436678797, 3113.97870004572, 3220.05302228376, 3487.92725263164, 3567.48814454916]

>  <E0_kJmol>  (4) 
-352957

>  <H298_kJmol>  (4) 
-352942

$$$$

     RDKit          3D

  1  0  0  0  0  0  0  0  0  0999 V2000
    0.0000    0.0000    0.0000 H   0  0  0  0  0 15  0  0  0  1  0  0
M  END
>  <rmg_smiles>  (5) 
[H]

>  <rmg_adjacency_list>  (5) 
multiplicity 2
1 H u1 p0 c0


>  <multiplicity>  (5) 
2

>  <reaction>  (5) 
rxn_111

>  <type>  (5) 
r2

>  <role_mapnums>  (5) 
{}

>  <role_mapidx>  (5) 
{}

>  <ordered_mapped_smiles>  (5) 
[H:1]

>  <level_of_theory>  (5) 
wb97xd/def2tzvp

>  <lot_method>  (5) 
wb97xd

>  <lot_basis>  (5) 
def2tzvp

>  <spin_multiplicity>  (5) 
2.0

>  <optical_isomers>  (5) 
1.0

>  <modes>  (5) 
IdealGasTranslation(mass=(1.00797, 'amu')),

>  <frequency_value>  (5) 
unknown

>  <frequency_units>  (5) 
unknown

>  <frequency_list>  (5) 
unknown

>  <arkane_path>  (5) 
/home/calvin/Dropbox/PersonalFolders/Calvin/HAb_Converged/rxn_111/output/Species/rxn_111_[H]/arkane/output.py

>  <path_exists>  (5) 
True

>  <E0_value>  (5) 
-1319.7535890175566

>  <E0_units>  (5) 
kJ/mol

>  <thermo_class>  (5) 
NASA

>  <Cp0_value>  (5) 
20.78618

>  <Cp0_units>  (5) 
J/(mol*K)

>  <CpInf_value>  (5) 
20.78618

>  <CpInf_units>  (5) 
J/(mol*K)

>  <Tmin_value>  (5) 
10.0

>  <Tmin_units>  (5) 
K

>  <Tmax_value>  (5) 
3000.0

>  <Tmax_units>  (5) 
K

>  <polynomials>  (5) 
[{"name": "polynomial1", "class": "NASAPolynomial", "Tmin_value": 10.0, "Tmin_units": "K", "Tmax_value": 1853.5663026740365, "Tmax_units": "K", "coeffs": [2.500000000000126, -2.814048095438137e-15, 9.047587538332909e-18, -8.591944598242694e-21, 2.4182720553650057e-24, -158729.69562032758, -0.461069367474324]}, {"name": "polynomial2", "class": "NASAPolynomial", "Tmin_value": 1853.5663026740365, "Tmin_units": "K", "Tmax_value": 3000.0, "Tmax_units": "K", "coeffs": [2.500000000696122, -1.3129776766613561e-12, 9.140875080033424e-16, -2.782806647322001e-19, 3.1263265306749967e-23, -158729.69562061856, -0.4610693713504795]}]

>  <H298_value>  (5) 
-313.9482141882736

>  <H298_units>  (5) 
kcal/mol

>  <S298_value>  (5) 
27.387012987908147

>  <S298_units>  (5) 
cal/(mol*K)

>  <Cp_T_value_list>  (5) 
[4.968016252389826, 4.968016252389978, 4.968016252390173, 4.96801625239036, 4.968016252390567, 4.968016252390427, 4.968016252389077, 4.968016252391019, 4.968016252390868]

>  <Cp_T_units>  (5) 
cal/(mol*K)

>  <T_list>  (5) 
[300.0, 400.0, 500.0, 600.0, 800.0, 1000.0, 1500.0, 2000.0, 2400.0]

>  <T_units>  (5) 
K

>  <yaml_path>  (5) 
/home/calvin/Dropbox/PersonalFolders/Calvin/HAb_Converged/rxn_111/output/Species/rxn_111_[H]/rxn_111_H.yml

>  <frequencies_cm1>  (5) 
[]

>  <ZPE_kJmol>  (5) 
unknown

>  <E_elec_kJmol>  (5) 
unknown

>  <E0_minus_Eelec_plus_ZPE_kJmol>  (5) 
unknown

>  <rxn>  (5) 
rxn_111

>  <species_type>  (5) 
r1

>  <species_folder>  (5) 
rxn_111_[H]

>  <frequencies_cm1_list>  (5) 
[]

>  <E0_kJmol>  (5) 
-1319.75

>  <H298_kJmol>  (5) 
-1313.56

$$$$
