
     RDKit          3D

  8  7  0  0  0  0  0  0  0  0999 V2000
    0.1133    0.8148    0.8248 C   0  0  0  0  0  0  0  0  0  1  0  0
    0.0683   -0.4506    0.1938 N   0  0  0  0  0  0  0  0  0  2  0  0
   -0.1538   -0.4937   -1.0492 C   0  0  0  0  0  0  0  0  0  3  0  0
   -0.8379    0.9331    1.3493 H   0  0  0  0  0  0  0  0  0  4  0  0
    0.8703    0.8561    1.6052 H   0  0  0  0  0  0  0  0  0  5  0  0
    0.1398    1.6869    0.1594 H   0  0  0  0  0  0  0  0  0  6  0  0
   -0.2261   -1.4595   -1.5436 H   0  0  0  0  0  0  0  0  0  7  0  0
   -0.2743    0.4046   -1.6674 H   0  0  0  0  0  0  0  0  0  8  0  0
  1  5  1  0
  1  2  1  0
  1  4  1  0
  1  6  1  0
  2  3  1  0
  3  7  1  0
  3  8  1  0
M  END
>  <rmg_smiles>  (1) 
[CH2][N]C

>  <rmg_adjacency_list>  (1) 
1 N u0 p1 c0 {2,S} {3,S}
2 C u0 p0 c0 {1,S} {4,S} {5,S} {6,S}
3 C u0 p0 c0 {1,S} {7,S} {8,S}
4 H u0 p0 c0 {2,S}
5 H u0 p0 c0 {2,S}
6 H u0 p0 c0 {2,S}
7 H u0 p0 c0 {3,S}
8 H u0 p0 c0 {3,S}


>  <multiplicity>  (1) 
1

>  <reaction>  (1) 
rxn_705

>  <type>  (1) 
r1h

>  <role_mapnums>  (1) 
{"r1h_a": 1, "r1h_h": 4}

>  <role_mapidx>  (1) 
{"r1h_a": 0, "r1h_h": 3}

>  <ordered_mapped_smiles>  (1) 
[C:1]([NH:2][CH:3]([H:7])[H:8])([H:4])([H:5])[H:6]

>  <mol_properties>  (1) 
{"0": {"label": "donator", "atom_type": "Cs"}, "3": {"label": "d_hydrogen", "atom_type": "H0"}}

>  <level_of_theory>  (1) 
wb97xd/def2tzvp

>  <lot_method>  (1) 
wb97xd

>  <lot_basis>  (1) 
def2tzvp

>  <spin_multiplicity>  (1) 
1.0

>  <optical_isomers>  (1) 
1.0

>  <modes>  (1) 
IdealGasTranslation(mass=(43.0422, 'amu')),         NonlinearRotor(             inertia = ([9.35964, 47.0699, 53.3249

>  <frequency_value>  (1) 
unknown

>  <frequency_units>  (1) 
unknown

>  <frequency_list>  (1) 
unknown

>  <arkane_path>  (1) 
/home/calvin/Dropbox/PersonalFolders/Calvin/HAb_Converged/rxn_705/output/Species/rxn_705_CN=C/arkane/output.py

>  <path_exists>  (1) 
True

>  <E0_value>  (1) 
-351496.7702447667

>  <E0_units>  (1) 
kJ/mol

>  <thermo_class>  (1) 
NASA

>  <Cp0_value>  (1) 
33.257888

>  <Cp0_units>  (1) 
J/(mol*K)

>  <CpInf_value>  (1) 
182.918384

>  <CpInf_units>  (1) 
J/(mol*K)

>  <Tmin_value>  (1) 
10.0

>  <Tmin_units>  (1) 
K

>  <Tmax_value>  (1) 
3000.0

>  <Tmax_units>  (1) 
K

>  <polynomials>  (1) 
[{"name": "polynomial1", "class": "NASAPolynomial", "Tmin_value": 10.0, "Tmin_units": "K", "Tmax_value": 593.5267641917761, "Tmax_units": "K", "coeffs": [4.005917257095779, -0.0006369438122972634, 5.462522441101729e-05, -7.383025892524002e-08, 3.23138370361393e-11, -42275296.28939189, 6.854240526977163]}, {"name": "polynomial2", "class": "NASAPolynomial", "Tmin_value": 593.5267641917761, "Tmin_units": "K", "Tmax_value": 3000.0, "Tmax_units": "K", "coeffs": [-0.05303294485932974, 0.026717683613847423, -1.4506780574768255e-05, 3.820370974160702e-09, -3.93266161559529e-13, -42274814.46738833, 24.318908675388744]}]

>  <H298_value>  (1) 
-84006.72908250283

>  <H298_units>  (1) 
kcal/mol

>  <S298_value>  (1) 
62.248095553338615

>  <S298_units>  (1) 
cal/(mol*K)

>  <Cp_T_value_list>  (1) 
[13.909311605489075, 17.076608556016602, 20.139511016138698, 22.911237132876586, 27.486488866178284, 30.970563452071197, 36.33821363019865, 39.00075818018305, 40.29167011904124]

>  <Cp_T_units>  (1) 
cal/(mol*K)

>  <T_list>  (1) 
[300.0, 400.0, 500.0, 600.0, 800.0, 1000.0, 1500.0, 2000.0, 2400.0]

>  <T_units>  (1) 
K

>  <yaml_path>  (1) 
/home/calvin/Dropbox/PersonalFolders/Calvin/HAb_Converged/rxn_705/output/Species/rxn_705_CN=C/rxn_705_CN=C.yml

>  <frequencies_cm1>  (1) 
[208.5503441684, 482.54305843640003, 693.64105415852, 981.9376988480799, 1065.3303685741598, 1116.9975661218398, 1136.40366663616, 1235.72087531932, 1426.5681313327598, 1463.98633434144, 1465.8610213338, 1497.346149026, 1751.75422116136, 2957.96766056064, 2971.2484101695195, 3060.07973226904, 3083.71589574048, 3117.954684546]

>  <ZPE_kJmol>  (1) 
177.75081351614938

>  <E_elec_kJmol>  (1) 
-351674.5210582829

>  <E0_minus_Eelec_plus_ZPE_kJmol>  (1) 
0.0

>  <rxn>  (1) 
rxn_705

>  <species_type>  (1) 
r1

>  <species_folder>  (1) 
rxn_705_CN=C

>  <frequencies_cm1_list>  (1) 
[208.5503441684, 482.54305843640003, 693.64105415852, 981.9376988480799, 1065.3303685741598, 1116.9975661218398, 1136.40366663616, 1235.72087531932, 1426.5681313327598, 1463.98633434144, 1465.8610213338, 1497.346149026, 1751.75422116136, 2957.96766056064, 2971.2484101695195, 3060.07973226904, 3083.71589574048, 3117.954684546]

>  <E0_kJmol>  (1) 
-351497

>  <H298_kJmol>  (1) 
-351484

$$$$

     RDKit          3D

  4  3  0  0  0  0  0  0  0  0999 V2000
   -0.0826    0.0476   -0.0067 N   0  0  0  0  0  0  0  0  0  1  0  0
   -0.2140   -0.9626   -0.0996 H   0  0  0  0  0  0  0  0  0  2  0  0
    0.3083    0.1597    0.9315 H   0  0  0  0  0  0  0  0  0  3  0  0
    0.7750    0.1181   -0.5596 H   0  0  0  0  0  0  0  0  0  4  0  0
  1  3  1  0
  1  2  1  0
  1  4  1  0
M  END
>  <rmg_smiles>  (2) 
N

>  <rmg_adjacency_list>  (2) 
1 N u0 p1 c0 {2,S} {3,S} {4,S}
2 H u0 p0 c0 {1,S}
3 H u0 p0 c0 {1,S}
4 H u0 p0 c0 {1,S}


>  <multiplicity>  (2) 
1

>  <reaction>  (2) 
rxn_705

>  <type>  (2) 
r2h

>  <role_mapnums>  (2) 
{"r2h_a": 1, "r2h_h": 4}

>  <role_mapidx>  (2) 
{"r2h_a": 0, "r2h_h": 3}

>  <ordered_mapped_smiles>  (2) 
[N:1]([H:2])([H:3])[H:4]

>  <mol_properties>  (2) 
{"0": {"label": "acceptor", "atom_type": "N3s"}, "3": {"label": "a_hydrogen", "atom_type": "H0"}}

>  <level_of_theory>  (2) 
wb97xd/def2tzvp

>  <lot_method>  (2) 
wb97xd

>  <lot_basis>  (2) 
def2tzvp

>  <spin_multiplicity>  (2) 
1.0

>  <optical_isomers>  (2) 
1.0

>  <modes>  (2) 
IdealGasTranslation(mass=(17.0266, 'amu')),         NonlinearRotor(             inertia = ([1.67808, 1.67808, 2.6816

>  <frequency_value>  (2) 
unknown

>  <frequency_units>  (2) 
unknown

>  <frequency_list>  (2) 
unknown

>  <arkane_path>  (2) 
/home/calvin/Dropbox/PersonalFolders/Calvin/HAb_Converged/rxn_705/output/Species/rxn_705_N/arkane/output.py

>  <path_exists>  (2) 
True

>  <E0_value>  (2) 
-148421.26364269105

>  <E0_units>  (2) 
kJ/mol

>  <thermo_class>  (2) 
NASA

>  <Cp0_value>  (2) 
33.257888

>  <Cp0_units>  (2) 
J/(mol*K)

>  <CpInf_value>  (2) 
83.14472

>  <CpInf_units>  (2) 
J/(mol*K)

>  <Tmin_value>  (2) 
10.0

>  <Tmin_units>  (2) 
K

>  <Tmax_value>  (2) 
3000.0

>  <Tmax_units>  (2) 
K

>  <polynomials>  (2) 
[{"name": "polynomial1", "class": "NASAPolynomial", "Tmin_value": 10.0, "Tmin_units": "K", "Tmax_value": 661.0804506617714, "Tmax_units": "K", "coeffs": [4.018065952450781, -0.0010594462951532533, 7.0068770418278475e-06, -1.9448375260802637e-09, -1.6903909714968277e-12, -17850955.574744247, 0.2630280077390306]}, {"name": "polynomial2", "class": "NASAPolynomial", "Tmin_value": 661.0804506617714, "Tmin_units": "K", "Tmax_value": 3000.0, "Tmax_units": "K", "coeffs": [2.4516557563251014, 0.005556461768624229, -1.5108534204519605e-06, 9.614541938565228e-11, 1.4295840769984746e-14, -17850685.932123393, 7.644744620409682]}]

>  <H298_value>  (2) 
-35471.13537017314

>  <H298_units>  (2) 
kcal/mol

>  <S298_value>  (2) 
45.962578608532034

>  <S298_units>  (2) 
cal/(mol*K)

>  <Cp_T_value_list>  (2) 
[8.474736662297328, 9.037108019992646, 9.720038934265556, 10.464061758445943, 11.893353433479012, 13.130875057040445, 15.468001463496948, 16.92913622142614, 17.662419085416545]

>  <Cp_T_units>  (2) 
cal/(mol*K)

>  <T_list>  (2) 
[300.0, 400.0, 500.0, 600.0, 800.0, 1000.0, 1500.0, 2000.0, 2400.0]

>  <T_units>  (2) 
K

>  <yaml_path>  (2) 
/home/calvin/Dropbox/PersonalFolders/Calvin/HAb_Converged/rxn_705/output/Species/rxn_705_N/rxn_705_N.yml

>  <frequencies_cm1>  (2) 
[1006.65197901476, 1653.7074047623996, 1654.02328608712, 3472.52460455888, 3599.6737047439997, 3600.5252109236794]

>  <ZPE_kJmol>  (2) 
89.64282786797604

>  <E_elec_kJmol>  (2) 
-148510.906470559

>  <E0_minus_Eelec_plus_ZPE_kJmol>  (2) 
0.0

>  <rxn>  (2) 
rxn_705

>  <species_type>  (2) 
p0

>  <species_folder>  (2) 
rxn_705_N

>  <frequencies_cm1_list>  (2) 
[1006.65197901476, 1653.7074047623996, 1654.02328608712, 3472.52460455888, 3599.6737047439997, 3600.5252109236794]

>  <E0_kJmol>  (2) 
-148421

>  <H298_kJmol>  (2) 
-148411

$$$$

     RDKit          3D

 11  9  0  0  0  0  0  0  0  0999 V2000
   -1.5276    0.6516    1.5518 N   0  0  0  0  0  2  0  0  0  1  0  0
   -1.6590   -0.3587    1.4589 H   0  0  0  0  0  0  0  0  0  2  0  0
   -1.1367    0.7636    2.4900 H   0  0  0  0  0  0  0  0  0  3  0  0
    0.6982    0.6094    0.2186 C   0  0  0  0  0  0  0  0  0  4  0  0
    0.6532   -0.6560   -0.4125 N   0  0  0  0  0  0  0  0  0  5  0  0
    0.4310   -0.6990   -1.6554 C   0  0  0  0  0  0  0  0  0  6  0  0
   -0.3918    0.7449    0.8195 H   0  0  0  0  0  0  0  0  0  7  0  0
    1.4551    0.6508    0.9990 H   0  0  0  0  0  0  0  0  0  8  0  0
    0.7247    1.4816   -0.4468 H   0  0  0  0  0  0  0  0  0  9  0  0
    0.3587   -1.6648   -2.1498 H   0  0  0  0  0  0  0  0  0 10  0  0
    0.3105    0.1992   -2.2737 H   0  0  0  0  0  0  0  0  0 11  0  0
  1  2  1  0
  1  3  1  0
  4  5  1  0
  4  8  1  0
  4  9  1  0
  4  7  1  0
  5  6  1  0
  6 11  1  0
  6 10  1  0
M  RAD  1   1   2
M  END
>  <rmg_smiles>  (3) 
[CH2][N]C.[NH2]

>  <rmg_adjacency_list>  (3) 
multiplicity 2
1  N u0 p1 c0 {3,S} {4,S}
2  N u1 p1 c0 {10,S} {11,S}
3  C u0 p0 c0 {1,S} {5,S} {6,S} {7,S}
4  C u0 p0 c0 {1,S} {8,S} {9,S}
5  H u0 p0 c0 {3,S}
6  H u0 p0 c0 {3,S}
7  H u0 p0 c0 {3,S}
8  H u0 p0 c0 {4,S}
9  H u0 p0 c0 {4,S}
10 H u0 p0 c0 {2,S}
11 H u0 p0 c0 {2,S}


>  <multiplicity>  (3) 
2

>  <reaction>  (3) 
rxn_705

>  <type>  (3) 
ts

>  <role_mapnums>  (3) 
{"*2": 7, "*1": 4, "*3": 1, "*0": 5, "*4": 2}

>  <role_mapidx>  (3) 
{"*2": 6, "*1": 3, "*3": 0, "*0": 4, "*4": 1}

>  <ordered_mapped_smiles>  (3) 
[N:1]([H:2])[H:3].[C:4]([NH:5][CH:6]([H:10])[H:11])([H:7])([H:8])[H:9]

>  <mol_properties>  (3) 
{"0": {"label": "*3", "atom_type": "N3s"}, "1": {"label": "*4", "atom_type": "H0"}, "3": {"label": "*1", "atom_type": "Cs"}, "4": {"label": "*0", "atom_type": "N3s"}, "6": {"label": "*2", "atom_type": "H0"}}

>  <level_of_theory>  (3) 
wb97xd/def2tzvp

>  <lot_method>  (3) 
wb97xd

>  <lot_basis>  (3) 
def2tzvp

>  <spin_multiplicity>  (3) 
2.0

>  <optical_isomers>  (3) 
2.0

>  <modes>  (3) 
IdealGasTranslation(mass=(59.0609, 'amu')),         NonlinearRotor(             inertia = ([32.3362, 148.588, 164.223

>  <frequency_value>  (3) 
-1631.69

>  <frequency_units>  (3) 
cm^-1

>  <frequency_list>  (3) 
unknown

>  <arkane_path>  (3) 
/home/calvin/Dropbox/PersonalFolders/Calvin/HAb_Converged/rxn_705/output/rxns/TS0/arkane/output.py

>  <path_exists>  (3) 
True

>  <E0_value>  (3) 
-498135.0

>  <E0_units>  (3) 
kJ/mol

>  <thermo_class>  (3) 
unknown

>  <Cp0_value>  (3) 
unknown

>  <Cp0_units>  (3) 
unknown

>  <CpInf_value>  (3) 
unknown

>  <CpInf_units>  (3) 
unknown

>  <Tmin_value>  (3) 
unknown

>  <Tmin_units>  (3) 
unknown

>  <Tmax_value>  (3) 
unknown

>  <Tmax_units>  (3) 
unknown

>  <polynomials>  (3) 
unknown

>  <H298_value>  (3) 
unknown

>  <H298_units>  (3) 
unknown

>  <S298_value>  (3) 
unknown

>  <S298_units>  (3) 
unknown

>  <Cp_T_value_list>  (3) 
unknown

>  <Cp_T_units>  (3) 
unknown

>  <T_list>  (3) 
unknown

>  <T_units>  (3) 
unknown

>  <yaml_path>  (3) 
unknown

>  <frequencies_cm1>  (3) 
unknown

>  <ZPE_kJmol>  (3) 
unknown

>  <E_elec_kJmol>  (3) 
unknown

>  <E0_minus_Eelec_plus_ZPE_kJmol>  (3) 
unknown

>  <rxn>  (3) 
unknown

>  <species_type>  (3) 
unknown

>  <species_folder>  (3) 
unknown

>  <frequencies_cm1_list>  (3) 
[]

>  <ts_imag_freq_cm1>  (3) 
-1651.5122

>  <ts_freq_out_path>  (3) 
/home/calvin/Dropbox/PersonalFolders/Calvin/HAb_Converged/rxn_705/output/rxns/TS0/geometry/freq.out

>  <E0_kJmol>  (3) 
-498135

>  <H298_kJmol>  (3) 
unknown

$$$$

     RDKit          3D

  7  6  0  0  0  0  0  0  0  0999 V2000
   -1.1471   -0.0368   -0.4095 C   0  0  0  0  0  0  0  0  0  1  0  0
   -0.0579   -0.7586   -0.2763 N   0  0  0  0  0  0  0  0  0  2  0  0
   -0.1578   -2.0649   -0.1823 C   0  0  0  0  0  3  0  0  0  3  0  0
   -1.0551    1.0396   -0.4862 H   0  0  0  0  0  0  0  0  0  4  0  0
   -2.1438   -0.4851   -0.4455 H   0  0  0  0  0  0  0  0  0  5  0  0
    0.7455   -2.6521   -0.0728 H   0  0  0  0  0  0  0  0  0  6  0  0
   -1.1219   -2.5801   -0.2109 H   0  0  0  0  0  0  0  0  0  7  0  0
  1  5  1  0
  1  2  1  0
  1  4  1  0
  2  3  1  0
  3  6  1  0
  3  7  1  0
M  RAD  1   3   2
M  END
>  <rmg_smiles>  (4) 
[CH2][N][CH2]

>  <rmg_adjacency_list>  (4) 
multiplicity 2
1 N u0 p1 c0 {2,S} {3,S}
2 C u1 p0 c0 {1,S} {6,S} {7,S}
3 C u0 p0 c0 {1,S} {4,S} {5,S}
4 H u0 p0 c0 {3,S}
5 H u0 p0 c0 {3,S}
6 H u0 p0 c0 {2,S}
7 H u0 p0 c0 {2,S}


>  <multiplicity>  (4) 
2

>  <reaction>  (4) 
rxn_705

>  <type>  (4) 
r1

>  <role_mapnums>  (4) 
{}

>  <role_mapidx>  (4) 
{}

>  <ordered_mapped_smiles>  (4) 
[CH:1]([NH:2][C:3]([H:6])[H:7])([H:4])[H:5]

>  <level_of_theory>  (4) 
wb97xd/def2tzvp

>  <lot_method>  (4) 
wb97xd

>  <lot_basis>  (4) 
def2tzvp

>  <spin_multiplicity>  (4) 
2.0

>  <optical_isomers>  (4) 
1.0

>  <modes>  (4) 
IdealGasTranslation(mass=(42.0344, 'amu')),         NonlinearRotor(             inertia = ([7.58038, 42.2133, 49.7937

>  <frequency_value>  (4) 
unknown

>  <frequency_units>  (4) 
unknown

>  <frequency_list>  (4) 
unknown

>  <arkane_path>  (4) 
/home/calvin/Dropbox/PersonalFolders/Calvin/HAb_Converged/rxn_705/output/Species/rxn_705_[CH2]N=C/arkane/output.py

>  <path_exists>  (4) 
True

>  <E0_value>  (4) 
-349823.9796385905

>  <E0_units>  (4) 
kJ/mol

>  <thermo_class>  (4) 
NASA

>  <Cp0_value>  (4) 
33.257888

>  <Cp0_units>  (4) 
J/(mol*K)

>  <CpInf_value>  (4) 
157.97496800000002

>  <CpInf_units>  (4) 
J/(mol*K)

>  <Tmin_value>  (4) 
10.0

>  <Tmin_units>  (4) 
K

>  <Tmax_value>  (4) 
3000.0

>  <Tmax_units>  (4) 
K

>  <polynomials>  (4) 
[{"name": "polynomial1", "class": "NASAPolynomial", "Tmin_value": 10.0, "Tmin_units": "K", "Tmax_value": 487.1651119864578, "Tmax_units": "K", "coeffs": [4.068562349698636, -0.006842806491019723, 0.00010235259974209155, -1.8856264839852256e-07, 1.1570810042189118e-10, -42074105.890410185, 6.526290618231332]}, {"name": "polynomial2", "class": "NASAPolynomial", "Tmin_value": 487.1651119864578, "Tmin_units": "K", "Tmax_value": 3000.0, "Tmax_units": "K", "coeffs": [1.4349534358717604, 0.02280535430058002, -1.3642061943530845e-05, 3.981931983073675e-09, -4.5115153583624745e-13, -42073944.50912985, 16.360687202294258]}]

>  <H298_value>  (4) 
-83606.96767023632

>  <H298_units>  (4) 
kcal/mol

>  <S298_value>  (4) 
61.15737108187201

>  <S298_units>  (4) 
cal/(mol*K)

>  <Cp_T_value_list>  (4) 
[14.056502175560192, 17.093897829800614, 19.666706348868193, 21.876464395598678, 25.440763587831768, 28.077292796620934, 32.0008036358456, 34.00993746540091, 35.109228201219246]

>  <Cp_T_units>  (4) 
cal/(mol*K)

>  <T_list>  (4) 
[300.0, 400.0, 500.0, 600.0, 800.0, 1000.0, 1500.0, 2000.0, 2400.0]

>  <T_units>  (4) 
K

>  <yaml_path>  (4) 
/home/calvin/Dropbox/PersonalFolders/Calvin/HAb_Converged/rxn_705/output/Species/rxn_705_[CH2]N=C/rxn_705_CH2N=C.yml

>  <frequencies_cm1>  (4) 
[361.94506224656, 477.59882900599996, 588.9607299404399, 850.5104668085999, 871.3036983575598, 1095.99832501328, 1168.2733455062798, 1277.73309150708, 1280.3356789433599, 1483.5778434593997, 1541.3291900006, 3015.47179563032, 3024.6941569150795, 3181.2339542697996, 3183.5069264107196]

>  <ZPE_kJmol>  (4) 
139.9779143914252

>  <E_elec_kJmol>  (4) 
-349963.9575529819

>  <E0_minus_Eelec_plus_ZPE_kJmol>  (4) 
0.0

>  <rxn>  (4) 
rxn_705

>  <species_type>  (4) 
p1

>  <species_folder>  (4) 
rxn_705_[CH2]N=C

>  <frequencies_cm1_list>  (4) 
[361.94506224656, 477.59882900599996, 588.9607299404399, 850.5104668085999, 871.3036983575598, 1095.99832501328, 1168.2733455062798, 1277.73309150708, 1280.3356789433599, 1483.5778434593997, 1541.3291900006, 3015.47179563032, 3024.6941569150795, 3181.2339542697996, 3183.5069264107196]

>  <E0_kJmol>  (4) 
-349824

>  <H298_kJmol>  (4) 
-349812

$$$$

     RDKit          3D

  3  2  0  0  0  0  0  0  0  0999 V2000
    0.0002    0.4233    0.0000 N   0  0  0  0  0  2  0  0  0  1  0  0
   -0.8051   -0.2112    0.0000 H   0  0  0  0  0  0  0  0  0  2  0  0
    0.8049   -0.2121    0.0000 H   0  0  0  0  0  0  0  0  0  3  0  0
  1  3  1  0
  1  2  1  0
M  RAD  1   1   2
M  END
>  <rmg_smiles>  (5) 
[NH2]

>  <rmg_adjacency_list>  (5) 
multiplicity 2
1 N u1 p1 c0 {2,S} {3,S}
2 H u0 p0 c0 {1,S}
3 H u0 p0 c0 {1,S}


>  <multiplicity>  (5) 
2

>  <reaction>  (5) 
rxn_705

>  <type>  (5) 
r2

>  <role_mapnums>  (5) 
{}

>  <role_mapidx>  (5) 
{}

>  <ordered_mapped_smiles>  (5) 
[N:1]([H:2])[H:3]

>  <level_of_theory>  (5) 
wb97xd/def2tzvp

>  <lot_method>  (5) 
wb97xd

>  <lot_basis>  (5) 
def2tzvp

>  <spin_multiplicity>  (5) 
2.0

>  <optical_isomers>  (5) 
1.0

>  <modes>  (5) 
IdealGasTranslation(mass=(16.0187, 'amu')),         NonlinearRotor(             inertia = ([0.710442, 1.30616, 2.0166

>  <frequency_value>  (5) 
unknown

>  <frequency_units>  (5) 
unknown

>  <frequency_list>  (5) 
unknown

>  <arkane_path>  (5) 
/home/calvin/Dropbox/PersonalFolders/Calvin/HAb_Converged/rxn_705/output/Species/rxn_705_[NH2]/arkane/output.py

>  <path_exists>  (5) 
True

>  <E0_value>  (5) 
-146665.82219964045

>  <E0_units>  (5) 
kJ/mol

>  <thermo_class>  (5) 
NASA

>  <Cp0_value>  (5) 
33.257888

>  <Cp0_units>  (5) 
J/(mol*K)

>  <CpInf_value>  (5) 
58.201304

>  <CpInf_units>  (5) 
J/(mol*K)

>  <Tmin_value>  (5) 
10.0

>  <Tmin_units>  (5) 
K

>  <Tmax_value>  (5) 
3000.0

>  <Tmax_units>  (5) 
K

>  <polynomials>  (5) 
[{"name": "polynomial1", "class": "NASAPolynomial", "Tmin_value": 10.0, "Tmin_units": "K", "Tmax_value": 785.762025652844, "Tmax_units": "K", "coeffs": [4.006150952110655, -0.0003084550413445115, 1.1919167642356156e-06, 1.4835268864917173e-09, -1.3501682773251204e-12, -17639824.212471265, 0.5976393950121619]}, {"name": "polynomial2", "class": "NASAPolynomial", "Tmin_value": 785.762025652844, "Tmin_units": "K", "Tmax_value": 3000.0, "Tmax_units": "K", "coeffs": [3.2706683171239272, 0.0018199930208633956, 2.1290206946552888e-07, -3.0253090271967345e-10, 5.0619779589579903e-14, -17639658.754270043, 4.285961361161453]}]

>  <H298_value>  (5) 
-35051.60272998557

>  <H298_units>  (5) 
kcal/mol

>  <S298_value>  (5) 
46.48569697774424

>  <S298_units>  (5) 
cal/(mol*K)

>  <Cp_T_value_list>  (5) 
[8.048197877278941, 8.214827565402967, 8.447531305278195, 8.735020460220388, 9.397018833396599, 10.038676259975528, 11.356703010007145, 12.225159042044737, 12.643051079877377]

>  <Cp_T_units>  (5) 
cal/(mol*K)

>  <T_list>  (5) 
[300.0, 400.0, 500.0, 600.0, 800.0, 1000.0, 1500.0, 2000.0, 2400.0]

>  <T_units>  (5) 
K

>  <yaml_path>  (5) 
/home/calvin/Dropbox/PersonalFolders/Calvin/HAb_Converged/rxn_705/output/Species/rxn_705_[NH2]/rxn_705_NH2.yml

>  <frequencies_cm1>  (5) 
[1514.64408504708, 3360.6064778135196, 3454.89705324244]

>  <ZPE_kJmol>  (5) 
49.8253618406256

>  <E_elec_kJmol>  (5) 
-146715.64756148108

>  <E0_minus_Eelec_plus_ZPE_kJmol>  (5) 
0.0

>  <rxn>  (5) 
rxn_705

>  <species_type>  (5) 
r0

>  <species_folder>  (5) 
rxn_705_[NH2]

>  <frequencies_cm1_list>  (5) 
[1514.64408504708, 3360.6064778135196, 3454.89705324244]

>  <E0_kJmol>  (5) 
-146666

>  <H298_kJmol>  (5) 
-146656

$$$$
