
     RDKit          3D

  4  3  0  0  0  0  0  0  0  0999 V2000
   -0.2561   -0.4508    0.4448 O   0  0  0  0  0  0  0  0  0  1  0  0
    0.2937    0.3903   -0.4723 O   0  0  0  0  0  0  0  0  0  2  0  0
   -1.1938   -0.4704    0.2089 H   0  0  0  0  0  0  0  0  0  3  0  0
    0.5197    1.1645    0.0483 H   0  0  0  0  0  0  0  0  0  4  0  0
  1  2  1  0
  1  3  1  0
  2  4  1  0
M  END
>  <rmg_smiles>  (1) 
OO

>  <rmg_adjacency_list>  (1) 
1 O u0 p2 c0 {2,S} {3,S}
2 O u0 p2 c0 {1,S} {4,S}
3 H u0 p0 c0 {1,S}
4 H u0 p0 c0 {2,S}


>  <multiplicity>  (1) 
1

>  <reaction>  (1) 
rxn_437

>  <type>  (1) 
r1h

>  <role_mapnums>  (1) 
{"r1h_a": 2, "r1h_h": 4}

>  <role_mapidx>  (1) 
{"r1h_a": 1, "r1h_h": 3}

>  <ordered_mapped_smiles>  (1) 
[O:1]([O:2][H:4])[H:3]

>  <mol_properties>  (1) 
{"1": {"label": "donator", "atom_type": "O2s"}, "3": {"label": "d_hydrogen", "atom_type": "H0"}}

>  <level_of_theory>  (1) 
wb97xd/def2tzvp

>  <lot_method>  (1) 
wb97xd

>  <lot_basis>  (1) 
def2tzvp

>  <spin_multiplicity>  (1) 
1.0

>  <optical_isomers>  (1) 
2.0

>  <modes>  (1) 
IdealGasTranslation(mass=(34.0055, 'amu')),         NonlinearRotor(             inertia = ([1.6422, 18.4839, 19.1306

>  <frequency_value>  (1) 
unknown

>  <frequency_units>  (1) 
unknown

>  <frequency_list>  (1) 
unknown

>  <arkane_path>  (1) 
/home/calvin/Dropbox/PersonalFolders/Calvin/HAb_Converged/rxn_437/output/Species/rxn_437_OO/arkane/output.py

>  <path_exists>  (1) 
True

>  <E0_value>  (1) 
-397869.6784032715

>  <E0_units>  (1) 
kJ/mol

>  <thermo_class>  (1) 
NASA

>  <Cp0_value>  (1) 
33.257888

>  <Cp0_units>  (1) 
J/(mol*K)

>  <CpInf_value>  (1) 
83.14472

>  <CpInf_units>  (1) 
J/(mol*K)

>  <Tmin_value>  (1) 
10.0

>  <Tmin_units>  (1) 
K

>  <Tmax_value>  (1) 
3000.0

>  <Tmax_units>  (1) 
K

>  <polynomials>  (1) 
[{"name": "polynomial1", "class": "NASAPolynomial", "Tmin_value": 10.0, "Tmin_units": "K", "Tmax_value": 455.78106288096404, "Tmax_units": "K", "coeffs": [3.993411036033662, 0.00039597769380578143, 1.891318343950514e-05, -3.2458663273975925e-08, 1.830389461818306e-11, -47852668.906908266, 4.504010200645888]}, {"name": "polynomial2", "class": "NASAPolynomial", "Tmin_value": 455.78106288096404, "Tmin_units": "K", "Tmax_value": 3000.0, "Tmax_units": "K", "coeffs": [3.1932894099772424, 0.0074090928900088, -4.13817425256861e-06, 1.2156565940750795e-09, -1.433593106081876e-13, -47852595.87875142, 7.736455149271243]}]

>  <H298_value>  (1) 
-95090.51348489316

>  <H298_units>  (1) 
kcal/mol

>  <S298_value>  (1) 
55.5670496873013

>  <S298_units>  (1) 
cal/(mol*K)

>  <Cp_T_value_list>  (1) 
[10.107465812395086, 11.06702468787646, 11.935737360557455, 12.7042208397447, 13.981643941817545, 14.976592388023054, 16.639120825815006, 17.666826111390996, 18.25874653130484]

>  <Cp_T_units>  (1) 
cal/(mol*K)

>  <T_list>  (1) 
[300.0, 400.0, 500.0, 600.0, 800.0, 1000.0, 1500.0, 2000.0, 2400.0]

>  <T_units>  (1) 
K

>  <yaml_path>  (1) 
/home/calvin/Dropbox/PersonalFolders/Calvin/HAb_Converged/rxn_437/output/Species/rxn_437_OO/rxn_437_OO.yml

>  <frequencies_cm1>  (1) 
[384.68165064108, 1007.86056843108, 1337.5514006295998, 1458.46527814416, 3787.7329647175193, 3788.3509933963196]

>  <ZPE_kJmol>  (1) 
70.36821125363778

>  <E_elec_kJmol>  (1) 
-397940.04661452514

>  <E0_minus_Eelec_plus_ZPE_kJmol>  (1) 
0.0

>  <rxn>  (1) 
rxn_437

>  <species_type>  (1) 
r0

>  <species_folder>  (1) 
rxn_437_OO

>  <frequencies_cm1_list>  (1) 
[384.68165064108, 1007.86056843108, 1337.5514006295998, 1458.46527814416, 3787.7329647175193, 3788.3509933963196]

>  <E0_kJmol>  (1) 
-397870

>  <H298_kJmol>  (1) 
-397859

$$$$

     RDKit          3D

 10  9  0  0  0  0  0  0  0  0999 V2000
   -0.2555    0.2108   -1.7073 H   0  0  0  0  0  0  0  0  0  1  0  0
    1.0770   -1.1790    0.4415 C   0  0  0  0  0  0  0  0  0  2  0  0
   -0.1214   -0.3920    0.8254 C   0  0  0  0  0  0  0  0  0  3  0  0
   -0.6984    0.5901    0.0803 C   0  0  0  0  0  0  0  0  0  4  0  0
   -0.3058    0.9588   -1.1077 O   0  0  0  0  0  0  0  0  0  5  0  0
    1.5195   -0.8197   -0.4857 H   0  0  0  0  0  0  0  0  0  6  0  0
    0.8178   -2.2323    0.3065 H   0  0  0  0  0  0  0  0  0  7  0  0
    1.8271   -1.1314    1.2351 H   0  0  0  0  0  0  0  0  0  8  0  0
   -0.5724   -0.5926    1.7909 H   0  0  0  0  0  0  0  0  0  9  0  0
   -1.5518    1.1346    0.4849 H   0  0  0  0  0  0  0  0  0 10  0  0
  1  5  1  0
  2  7  1  0
  2  8  1  0
  2  6  1  0
  2  3  1  0
  3  4  1  0
  3  9  1  0
  4 10  1  0
  4  5  1  0
M  END
>  <rmg_smiles>  (2) 
C[CH][CH]O

>  <rmg_adjacency_list>  (2) 
1  O u0 p2 c0 {4,S} {10,S}
2  C u0 p0 c0 {3,S} {5,S} {6,S} {7,S}
3  C u0 p0 c0 {2,S} {4,S} {8,S}
4  C u0 p0 c0 {1,S} {3,S} {9,S}
5  H u0 p0 c0 {2,S}
6  H u0 p0 c0 {2,S}
7  H u0 p0 c0 {2,S}
8  H u0 p0 c0 {3,S}
9  H u0 p0 c0 {4,S}
10 H u0 p0 c0 {1,S}


>  <multiplicity>  (2) 
1

>  <reaction>  (2) 
rxn_437

>  <type>  (2) 
r2h

>  <role_mapnums>  (2) 
{"r2h_a": 5, "r2h_h": 1}

>  <role_mapidx>  (2) 
{"r2h_a": 4, "r2h_h": 0}

>  <ordered_mapped_smiles>  (2) 
[H:1][O:5][CH:4]([CH:3]([C:2]([H:6])([H:7])[H:8])[H:9])[H:10]

>  <mol_properties>  (2) 
{"0": {"label": "a_hydrogen", "atom_type": "H0"}, "4": {"label": "acceptor", "atom_type": "O2s"}}

>  <level_of_theory>  (2) 
wb97xd/def2tzvp

>  <lot_method>  (2) 
wb97xd

>  <lot_basis>  (2) 
def2tzvp

>  <spin_multiplicity>  (2) 
1.0

>  <optical_isomers>  (2) 
1.0

>  <modes>  (2) 
IdealGasTranslation(mass=(58.0419, 'amu')),         NonlinearRotor(             inertia = ([27.5512, 91.7936, 116.228

>  <frequency_value>  (2) 
unknown

>  <frequency_units>  (2) 
unknown

>  <frequency_list>  (2) 
unknown

>  <arkane_path>  (2) 
/home/calvin/Dropbox/PersonalFolders/Calvin/HAb_Converged/rxn_437/output/Species/rxn_437_CC=CO/arkane/output.py

>  <path_exists>  (2) 
True

>  <E0_value>  (2) 
-506878.1786473417

>  <E0_units>  (2) 
kJ/mol

>  <thermo_class>  (2) 
NASA

>  <Cp0_value>  (2) 
33.257888

>  <Cp0_units>  (2) 
J/(mol*K)

>  <CpInf_value>  (2) 
232.805216

>  <CpInf_units>  (2) 
J/(mol*K)

>  <Tmin_value>  (2) 
10.0

>  <Tmin_units>  (2) 
K

>  <Tmax_value>  (2) 
3000.0

>  <Tmax_units>  (2) 
K

>  <polynomials>  (2) 
[{"name": "polynomial1", "class": "NASAPolynomial", "Tmin_value": 10.0, "Tmin_units": "K", "Tmax_value": 909.4835588351281, "Tmax_units": "K", "coeffs": [3.8894619439607685, 0.013726863235632969, 2.7717797463900202e-05, -4.024159874597937e-08, 1.517288654779621e-11, -60963365.3132617, 9.57962220716384]}, {"name": "polynomial2", "class": "NASAPolynomial", "Tmin_value": 909.4835588351281, "Tmin_units": "K", "Tmax_value": 3000.0, "Tmax_units": "K", "coeffs": [2.4859367731475883, 0.030092502597995105, -1.6084699883503753e-05, 4.188999438117395e-09, -4.2751445197622527e-13, -60963531.57042887, 13.900110866758064]}]

>  <H298_value>  (2) 
-121142.9389857226

>  <H298_units>  (2) 
kcal/mol

>  <S298_value>  (2) 
72.99906947001163

>  <S298_units>  (2) 
cal/(mol*K)

>  <Cp_T_value_list>  (2) 
[18.954969013226542, 23.10727377424761, 27.026899662681938, 30.55967439359763, 36.20980114857799, 40.251313752619374, 46.51592789478484, 49.687925960314544, 51.2399138121791]

>  <Cp_T_units>  (2) 
cal/(mol*K)

>  <T_list>  (2) 
[300.0, 400.0, 500.0, 600.0, 800.0, 1000.0, 1500.0, 2000.0, 2400.0]

>  <T_units>  (2) 
K

>  <yaml_path>  (2) 
/home/calvin/Dropbox/PersonalFolders/Calvin/HAb_Converged/rxn_437/output/Species/rxn_437_CC=CO/rxn_437_CC=CO.yml

>  <frequencies_cm1>  (2) 
[25.579520317, 270.7652311676, 337.46425958076, 500.44528916563996, 652.8992302549599, 753.58983600212, 916.1588464678, 970.8681185122398, 1042.77918878328, 1046.99551776976, 1124.06369401612, 1240.88484827996, 1339.52909240176, 1404.7311180151598, 1430.4273770826, 1462.496198527, 1488.8722891411198, 1742.2503134784797, 3004.49148610364, 3066.7544420000795, 3068.0454352402394, 3160.0493045576, 3186.1438487736, 3824.7734835336]

>  <ZPE_kJmol>  (2) 
221.67441786274827

>  <E_elec_kJmol>  (2) 
-507099.8530652044

>  <E0_minus_Eelec_plus_ZPE_kJmol>  (2) 
0.0

>  <rxn>  (2) 
rxn_437

>  <species_type>  (2) 
p0

>  <species_folder>  (2) 
rxn_437_CC=CO

>  <frequencies_cm1_list>  (2) 
[25.579520317, 270.7652311676, 337.46425958076, 500.44528916563996, 652.8992302549599, 753.58983600212, 916.1588464678, 970.8681185122398, 1042.77918878328, 1046.99551776976, 1124.06369401612, 1240.88484827996, 1339.52909240176, 1404.7311180151598, 1430.4273770826, 1462.496198527, 1488.8722891411198, 1742.2503134784797, 3004.49148610364, 3066.7544420000795, 3068.0454352402394, 3160.0493045576, 3186.1438487736, 3824.7734835336]

>  <E0_kJmol>  (2) 
-506878

>  <H298_kJmol>  (2) 
-506862

$$$$

     RDKit          3D

 13 11  0  0  0  0  0  0  0  0999 V2000
   -0.5022   -1.1778   -0.9276 O   0  0  0  0  0  0  0  0  0  1  0  0
    0.0476   -0.3367   -1.8448 O   0  0  0  0  0  1  0  0  0  2  0  0
   -1.4399   -1.1974   -1.1635 H   0  0  0  0  0  0  0  0  0  3  0  0
    0.3512    0.7034   -1.1454 H   0  0  0  0  0  0  0  0  0  4  0  0
    1.6765   -0.5796    1.0891 C   0  0  0  0  0  0  0  0  0  5  0  0
    0.4781    0.2074    1.4730 C   0  0  0  0  0  0  0  0  0  6  0  0
   -0.0989    1.1896    0.7280 C   0  0  0  0  0  0  0  0  0  7  0  0
    0.2937    1.5582   -0.4600 O   0  0  0  0  0  0  0  0  0  8  0  0
    2.1190   -0.2202    0.1619 H   0  0  0  0  0  0  0  0  0  9  0  0
    1.4173   -1.6329    0.9542 H   0  0  0  0  0  0  0  0  0 10  0  0
    2.4266   -0.5320    1.8828 H   0  0  0  0  0  0  0  0  0 11  0  0
    0.0271    0.0068    2.4386 H   0  0  0  0  0  0  0  0  0 12  0  0
   -0.9523    1.7341    1.1325 H   0  0  0  0  0  0  0  0  0 13  0  0
  1  2  1  0
  1  3  1  0
  4  8  1  0
  5 11  1  0
  5  6  1  0
  5  9  1  0
  5 10  1  0
  6  7  1  0
  6 12  1  0
  7 13  1  0
  7  8  1  0
M  RAD  1   2   2
M  END
>  <rmg_smiles>  (3) 
C[CH][CH]O.[O]O

>  <rmg_adjacency_list>  (3) 
multiplicity 2
1  O u0 p2 c0 {6,S} {12,S}
2  O u0 p2 c0 {3,S} {13,S}
3  O u1 p2 c0 {2,S}
4  C u0 p0 c0 {5,S} {7,S} {8,S} {9,S}
5  C u0 p0 c0 {4,S} {6,S} {10,S}
6  C u0 p0 c0 {1,S} {5,S} {11,S}
7  H u0 p0 c0 {4,S}
8  H u0 p0 c0 {4,S}
9  H u0 p0 c0 {4,S}
10 H u0 p0 c0 {5,S}
11 H u0 p0 c0 {6,S}
12 H u0 p0 c0 {1,S}
13 H u0 p0 c0 {2,S}


>  <multiplicity>  (3) 
2

>  <reaction>  (3) 
rxn_437

>  <type>  (3) 
ts

>  <role_mapnums>  (3) 
{"*2": 4, "*1": 8, "*3": 2, "*0": 7, "*4": 1}

>  <role_mapidx>  (3) 
{"*2": 3, "*1": 7, "*3": 1, "*0": 6, "*4": 0}

>  <ordered_mapped_smiles>  (3) 
[O:1]([O:2])[H:3].[H:4][O:8][CH:7]([CH:6]([C:5]([H:9])([H:10])[H:11])[H:12])[H:13]

>  <mol_properties>  (3) 
{"0": {"label": "*4", "atom_type": "O2s"}, "1": {"label": "*3", "atom_type": "O2s"}, "3": {"label": "*2", "atom_type": "H0"}, "6": {"label": "*0", "atom_type": "Cs"}, "7": {"label": "*1", "atom_type": "O2s"}}

>  <level_of_theory>  (3) 
wb97xd/def2tzvp

>  <lot_method>  (3) 
wb97xd

>  <lot_basis>  (3) 
def2tzvp

>  <spin_multiplicity>  (3) 
2.0

>  <optical_isomers>  (3) 
2.0

>  <modes>  (3) 
IdealGasTranslation(mass=(91.0395, 'amu')),         NonlinearRotor(             inertia = ([117.045, 186.849, 243.299

>  <frequency_value>  (3) 
-1850.4

>  <frequency_units>  (3) 
cm^-1

>  <frequency_list>  (3) 
unknown

>  <arkane_path>  (3) 
/home/calvin/Dropbox/PersonalFolders/Calvin/HAb_Converged/rxn_437/output/rxns/TS0/arkane/output.py

>  <path_exists>  (3) 
True

>  <E0_value>  (3) 
-903066.0

>  <E0_units>  (3) 
kJ/mol

>  <thermo_class>  (3) 
unknown

>  <Cp0_value>  (3) 
unknown

>  <Cp0_units>  (3) 
unknown

>  <CpInf_value>  (3) 
unknown

>  <CpInf_units>  (3) 
unknown

>  <Tmin_value>  (3) 
unknown

>  <Tmin_units>  (3) 
unknown

>  <Tmax_value>  (3) 
unknown

>  <Tmax_units>  (3) 
unknown

>  <polynomials>  (3) 
unknown

>  <H298_value>  (3) 
unknown

>  <H298_units>  (3) 
unknown

>  <S298_value>  (3) 
unknown

>  <S298_units>  (3) 
unknown

>  <Cp_T_value_list>  (3) 
unknown

>  <Cp_T_units>  (3) 
unknown

>  <T_list>  (3) 
unknown

>  <T_units>  (3) 
unknown

>  <yaml_path>  (3) 
unknown

>  <frequencies_cm1>  (3) 
unknown

>  <ZPE_kJmol>  (3) 
unknown

>  <E_elec_kJmol>  (3) 
unknown

>  <E0_minus_Eelec_plus_ZPE_kJmol>  (3) 
unknown

>  <rxn>  (3) 
unknown

>  <species_type>  (3) 
unknown

>  <species_folder>  (3) 
unknown

>  <frequencies_cm1_list>  (3) 
[]

>  <ts_imag_freq_cm1>  (3) 
-1872.8729

>  <ts_freq_out_path>  (3) 
/home/calvin/Dropbox/PersonalFolders/Calvin/HAb_Converged/rxn_437/output/rxns/TS0/geometry/freq.out

>  <E0_kJmol>  (3) 
-903066

>  <H298_kJmol>  (3) 
unknown

$$$$

     RDKit          3D

  3  2  0  0  0  0  0  0  0  0999 V2000
    0.9943   -0.1797    0.0000 O   0  0  0  0  0  1  0  0  0  1  0  0
   -0.1595    0.4394    0.0000 O   0  0  0  0  0  0  0  0  0  2  0  0
   -0.8348   -0.2597    0.0000 H   0  0  0  0  0  0  0  0  0  3  0  0
  1  2  1  0
  2  3  1  0
M  RAD  1   1   2
M  END
>  <rmg_smiles>  (4) 
[O]O

>  <rmg_adjacency_list>  (4) 
multiplicity 2
1 O u1 p2 c0 {2,S}
2 O u0 p2 c0 {1,S} {3,S}
3 H u0 p0 c0 {2,S}


>  <multiplicity>  (4) 
2

>  <reaction>  (4) 
rxn_437

>  <type>  (4) 
r1

>  <role_mapnums>  (4) 
{}

>  <role_mapidx>  (4) 
{}

>  <ordered_mapped_smiles>  (4) 
[O:1][O:2][H:3]

>  <level_of_theory>  (4) 
wb97xd/def2tzvp

>  <lot_method>  (4) 
wb97xd

>  <lot_basis>  (4) 
def2tzvp

>  <spin_multiplicity>  (4) 
2.0

>  <optical_isomers>  (4) 
1.0

>  <modes>  (4) 
IdealGasTranslation(mass=(32.9977, 'amu')),         NonlinearRotor(             inertia = ([0.803517, 14.5889, 15.3924

>  <frequency_value>  (4) 
unknown

>  <frequency_units>  (4) 
unknown

>  <frequency_list>  (4) 
unknown

>  <arkane_path>  (4) 
/home/calvin/Dropbox/PersonalFolders/Calvin/HAb_Converged/rxn_437/output/Species/rxn_437_[O]O/arkane/output.py

>  <path_exists>  (4) 
True

>  <E0_value>  (4) 
-396214.7927695905

>  <E0_units>  (4) 
kJ/mol

>  <thermo_class>  (4) 
NASA

>  <Cp0_value>  (4) 
33.257888

>  <Cp0_units>  (4) 
J/(mol*K)

>  <CpInf_value>  (4) 
58.201304

>  <CpInf_units>  (4) 
J/(mol*K)

>  <Tmin_value>  (4) 
10.0

>  <Tmin_units>  (4) 
K

>  <Tmax_value>  (4) 
3000.0

>  <Tmax_units>  (4) 
K

>  <polynomials>  (4) 
[{"name": "polynomial1", "class": "NASAPolynomial", "Tmin_value": 10.0, "Tmin_units": "K", "Tmax_value": 938.1901641883775, "Tmax_units": "K", "coeffs": [4.028900763568748, -0.0017001850192041605, 1.0116513729421136e-05, -1.0102502975955476e-08, 3.2943616799556636e-12, -47653633.38795187, 4.661311963627797]}, {"name": "polynomial2", "class": "NASAPolynomial", "Tmin_value": 938.1901641883775, "Tmin_units": "K", "Tmax_value": 3000.0, "Tmax_units": "K", "coeffs": [3.0224709900106443, 0.00428209217697721, -2.152234978217665e-06, 5.370565329041951e-10, -5.2799153043016775e-14, -47653518.97920004, 9.055842364041489]}]

>  <H298_value>  (4) 
-94695.23338060976

>  <H298_units>  (4) 
kcal/mol

>  <S298_value>  (4) 
54.59701487407024

>  <S298_units>  (4) 
cal/(mol*K)

>  <Cp_T_value_list>  (4) 
[8.312978103030632, 8.754130351990018, 9.242540000567846, 9.728455522252242, 10.572357002256187, 11.201059485179156, 12.218042363471625, 12.776508208459937, 13.066159106759592]

>  <Cp_T_units>  (4) 
cal/(mol*K)

>  <T_list>  (4) 
[300.0, 400.0, 500.0, 600.0, 800.0, 1000.0, 1500.0, 2000.0, 2400.0]

>  <T_units>  (4) 
K

>  <yaml_path>  (4) 
/home/calvin/Dropbox/PersonalFolders/Calvin/HAb_Converged/rxn_437/output/Species/rxn_437_[O]O/rxn_437_OO.yml

>  <frequencies_cm1>  (4) 
[1229.25217514788, 1446.77766912952, 3624.6283293968795]

>  <ZPE_kJmol>  (4) 
37.68631575394318

>  <E_elec_kJmol>  (4) 
-396252.4790853445

>  <E0_minus_Eelec_plus_ZPE_kJmol>  (4) 
0.0

>  <rxn>  (4) 
rxn_437

>  <species_type>  (4) 
p1

>  <species_folder>  (4) 
rxn_437_[O]O

>  <frequencies_cm1_list>  (4) 
[1229.25217514788, 1446.77766912952, 3624.6283293968795]

>  <E0_kJmol>  (4) 
-396215

>  <H298_kJmol>  (4) 
-396205

$$$$

     RDKit          3D

  9  8  0  0  0  0  0  0  0  0999 V2000
   -1.1190   -0.1791    0.1439 C   0  0  0  0  0  0  0  0  0  1  0  0
    0.1303    0.5931   -0.0164 C   0  0  0  0  0  0  0  0  0  2  0  0
    0.3198    1.5563   -1.0510 C   0  0  0  0  0  0  0  0  0  3  0  0
   -0.5293    1.8274   -1.8924 O   0  0  0  0  0  1  0  0  0  4  0  0
   -0.9173   -1.2534    0.0852 H   0  0  0  0  0  0  0  0  0  5  0  0
   -1.8441    0.0914   -0.6212 H   0  0  0  0  0  0  0  0  0  6  0  0
   -1.5557   -0.0033    1.1322 H   0  0  0  0  0  0  0  0  0  7  0  0
    0.9483    0.4300    0.6772 H   0  0  0  0  0  0  0  0  0  8  0  0
    1.2979    2.0687   -1.0664 H   0  0  0  0  0  0  0  0  0  9  0  0
  1  5  1  0
  1  7  1  0
  1  6  1  0
  1  2  1  0
  2  8  1  0
  2  3  1  0
  3  4  1  0
  3  9  1  0
M  RAD  1   4   2
M  END
>  <rmg_smiles>  (5) 
C[CH][CH][O]

>  <rmg_adjacency_list>  (5) 
multiplicity 2
1 O u1 p2 c0 {4,S}
2 C u0 p0 c0 {3,S} {5,S} {6,S} {7,S}
3 C u0 p0 c0 {2,S} {4,S} {8,S}
4 C u0 p0 c0 {1,S} {3,S} {9,S}
5 H u0 p0 c0 {2,S}
6 H u0 p0 c0 {2,S}
7 H u0 p0 c0 {2,S}
8 H u0 p0 c0 {3,S}
9 H u0 p0 c0 {4,S}


>  <multiplicity>  (5) 
2

>  <reaction>  (5) 
rxn_437

>  <type>  (5) 
r2

>  <role_mapnums>  (5) 
{}

>  <role_mapidx>  (5) 
{}

>  <ordered_mapped_smiles>  (5) 
[C:1]([CH:2]([CH:3]([O:4])[H:9])[H:8])([H:5])([H:6])[H:7]

>  <level_of_theory>  (5) 
wb97xd/def2tzvp

>  <lot_method>  (5) 
wb97xd

>  <lot_basis>  (5) 
def2tzvp

>  <spin_multiplicity>  (5) 
2.0

>  <optical_isomers>  (5) 
1.0

>  <modes>  (5) 
IdealGasTranslation(mass=(57.034, 'amu')),         NonlinearRotor(             inertia = ([25.4235, 86.3658, 108.698

>  <frequency_value>  (5) 
unknown

>  <frequency_units>  (5) 
unknown

>  <frequency_list>  (5) 
unknown

>  <arkane_path>  (5) 
/home/calvin/Dropbox/PersonalFolders/Calvin/HAb_Converged/rxn_437/output/Species/rxn_437_CC=C[O]/arkane/output.py

>  <path_exists>  (5) 
True

>  <E0_value>  (5) 
-505242.8187729655

>  <E0_units>  (5) 
kJ/mol

>  <thermo_class>  (5) 
NASA

>  <Cp0_value>  (5) 
33.257888

>  <Cp0_units>  (5) 
J/(mol*K)

>  <CpInf_value>  (5) 
207.8618

>  <CpInf_units>  (5) 
J/(mol*K)

>  <Tmin_value>  (5) 
10.0

>  <Tmin_units>  (5) 
K

>  <Tmax_value>  (5) 
3000.0

>  <Tmax_units>  (5) 
K

>  <polynomials>  (5) 
[{"name": "polynomial1", "class": "NASAPolynomial", "Tmin_value": 10.0, "Tmin_units": "K", "Tmax_value": 938.3622919509731, "Tmax_units": "K", "coeffs": [3.925926157873155, 0.011961588050707163, 2.533480274898383e-05, -3.606714151980103e-08, 1.3339092995988627e-11, -60766678.05232901, 9.01312359528664]}, {"name": "polynomial2", "class": "NASAPolynomial", "Tmin_value": 938.3622919509731, "Tmin_units": "K", "Tmax_value": 3000.0, "Tmax_units": "K", "coeffs": [3.019130379628673, 0.026184009268155936, -1.3956102275948442e-05, 3.6096781914967725e-09, -3.653993685992911e-13, -60766963.85015544, 10.900549292684428]}]

>  <H298_value>  (5) 
-120752.24207989789

>  <H298_units>  (5) 
kcal/mol

>  <S298_value>  (5) 
71.09649412997165

>  <S298_units>  (5) 
cal/(mol*K)

>  <Cp_T_value_list>  (5) 
[17.7433071122309, 21.45649166237723, 24.970683439589372, 28.142126644312672, 33.19983452589598, 36.74606375340809, 42.18192318157225, 44.89849744848956, 46.20398340912661]

>  <Cp_T_units>  (5) 
cal/(mol*K)

>  <T_list>  (5) 
[300.0, 400.0, 500.0, 600.0, 800.0, 1000.0, 1500.0, 2000.0, 2400.0]

>  <T_units>  (5) 
K

>  <yaml_path>  (5) 
/home/calvin/Dropbox/PersonalFolders/Calvin/HAb_Converged/rxn_437/output/Species/rxn_437_CC=C[O]/rxn_437_CC=CO.yml

>  <frequencies_cm1>  (5) 
[96.33007006896, 270.00299579707996, 301.64606415163996, 649.5481414187999, 695.1929928408399, 884.2067637738398, 940.2413639850399, 1007.2494067375999, 1061.03850274916, 1168.50682300716, 1375.1756131978798, 1396.9439566622798, 1416.5285987949198, 1458.6163518212, 1479.0181652069198, 1603.24192964572, 2929.1675241285598, 2997.6313677689595, 3046.4350324382, 3120.859419336359, 3151.9393948946795]

>  <ZPE_kJmol>  (5) 
185.71742832322252

>  <E_elec_kJmol>  (5) 
-505428.5362012887

>  <E0_minus_Eelec_plus_ZPE_kJmol>  (5) 
0.0

>  <rxn>  (5) 
rxn_437

>  <species_type>  (5) 
r1

>  <species_folder>  (5) 
rxn_437_CC=C[O]

>  <frequencies_cm1_list>  (5) 
[96.33007006896, 270.00299579707996, 301.64606415163996, 649.5481414187999, 695.1929928408399, 884.2067637738398, 940.2413639850399, 1007.2494067375999, 1061.03850274916, 1168.50682300716, 1375.1756131978798, 1396.9439566622798, 1416.5285987949198, 1458.6163518212, 1479.0181652069198, 1603.24192964572, 2929.1675241285598, 2997.6313677689595, 3046.4350324382, 3120.859419336359, 3151.9393948946795]

>  <E0_kJmol>  (5) 
-505243

>  <H298_kJmol>  (5) 
-505227

$$$$
