
     RDKit          3D

 14 13  0  0  0  0  0  0  0  0999 V2000
    0.5694    0.6034   -1.2219 C   0  0  0  0  0  0  0  0  0  1  0  0
    0.1980   -0.0842    0.0596 C   0  0  0  0  0  0  0  0  0  2  0  0
   -0.1301    0.8063    1.2227 C   0  0  0  0  0  0  0  0  0  3  0  0
   -0.6456   -1.3195   -0.0703 C   0  0  0  0  0  0  0  0  0  4  0  0
    1.2964    1.4000   -1.0568 H   0  0  0  0  0  0  0  0  0  5  0  0
   -0.3200    1.0576   -1.6774 H   0  0  0  0  0  0  0  0  0  6  0  0
    0.9843   -0.0985   -1.9474 H   0  0  0  0  0  0  0  0  0  7  0  0
    1.1354   -0.5046    0.4237 H   0  0  0  0  0  0  0  0  0  8  0  0
   -1.1003    1.2936    1.0676 H   0  0  0  0  0  0  0  0  0  9  0  0
   -0.1976    0.2351    2.1514 H   0  0  0  0  0  0  0  0  0 10  0  0
    0.6183    1.5907    1.3502 H   0  0  0  0  0  0  0  0  0 11  0  0
   -0.2849   -1.9704   -0.8679 H   0  0  0  0  0  0  0  0  0 12  0  0
   -1.6814   -1.0466   -0.3085 H   0  0  0  0  0  0  0  0  0 13  0  0
   -0.6622   -1.8889    0.8612 H   0  0  0  0  0  0  0  0  0 14  0  0
  1  5  1  0
  1  7  1  0
  1  6  1  0
  1  2  1  0
  2  8  1  0
  2  3  1  0
  2  4  1  0
  3 11  1  0
  3  9  1  0
  3 10  1  0
  4 14  1  0
  4 13  1  0
  4 12  1  0
M  END
>  <rmg_smiles>  (1) 
CC(C)C

>  <rmg_adjacency_list>  (1) 
1  C u0 p0 c0 {2,S} {3,S} {4,S} {5,S}
2  C u0 p0 c0 {1,S} {6,S} {7,S} {8,S}
3  C u0 p0 c0 {1,S} {9,S} {10,S} {11,S}
4  C u0 p0 c0 {1,S} {12,S} {13,S} {14,S}
5  H u0 p0 c0 {1,S}
6  H u0 p0 c0 {2,S}
7  H u0 p0 c0 {2,S}
8  H u0 p0 c0 {2,S}
9  H u0 p0 c0 {3,S}
10 H u0 p0 c0 {3,S}
11 H u0 p0 c0 {3,S}
12 H u0 p0 c0 {4,S}
13 H u0 p0 c0 {4,S}
14 H u0 p0 c0 {4,S}


>  <multiplicity>  (1) 
1

>  <reaction>  (1) 
rxn_985

>  <type>  (1) 
r1h

>  <role_mapnums>  (1) 
{"r1h_a": 2, "r1h_h": 8}

>  <role_mapidx>  (1) 
{"r1h_a": 1, "r1h_h": 7}

>  <ordered_mapped_smiles>  (1) 
[C:1]([C:2]([C:3]([H:9])([H:10])[H:11])([C:4]([H:12])([H:13])[H:14])[H:8])([H:5])([H:6])[H:7]

>  <mol_properties>  (1) 
{"1": {"label": "donator", "atom_type": "Cs"}, "7": {"label": "d_hydrogen", "atom_type": "H0"}}

>  <level_of_theory>  (1) 
wb97xd/def2tzvp

>  <lot_method>  (1) 
wb97xd

>  <lot_basis>  (1) 
def2tzvp

>  <spin_multiplicity>  (1) 
1.0

>  <optical_isomers>  (1) 
1.0

>  <modes>  (1) 
IdealGasTranslation(mass=(58.0782, 'amu')),         NonlinearRotor(             inertia = ([64.472, 64.4728, 111.215

>  <frequency_value>  (1) 
unknown

>  <frequency_units>  (1) 
unknown

>  <frequency_list>  (1) 
unknown

>  <arkane_path>  (1) 
/home/calvin/Dropbox/PersonalFolders/Calvin/HAb_Converged/rxn_985/output/Species/rxn_985_CC[C]C/arkane/output.py

>  <path_exists>  (1) 
True

>  <E0_value>  (1) 
-415716.8517435479

>  <E0_units>  (1) 
kJ/mol

>  <thermo_class>  (1) 
NASA

>  <Cp0_value>  (1) 
33.257888

>  <Cp0_units>  (1) 
J/(mol*K)

>  <CpInf_value>  (1) 
332.57888

>  <CpInf_units>  (1) 
J/(mol*K)

>  <Tmin_value>  (1) 
10.0

>  <Tmin_units>  (1) 
K

>  <Tmax_value>  (1) 
3000.0

>  <Tmax_units>  (1) 
K

>  <polynomials>  (1) 
[{"name": "polynomial1", "class": "NASAPolynomial", "Tmin_value": 10.0, "Tmin_units": "K", "Tmax_value": 538.2288288378818, "Tmax_units": "K", "coeffs": [3.862179133618637, 0.009611460868491354, 8.48495647537319e-05, -1.3115466099753627e-07, 6.34433221901639e-11, -49999183.91925753, 7.55864121264763]}, {"name": "polynomial2", "class": "NASAPolynomial", "Tmin_value": 538.2288288378818, "Tmin_units": "K", "Tmax_value": 3000.0, "Tmax_units": "K", "coeffs": [-1.5221082611348944, 0.04962603885463749, -2.666703442230838e-05, 6.972241935921707e-09, -7.143058693488845e-13, -49998604.319477506, 30.199340550710836]}]

>  <H298_value>  (1) 
-99354.53532980123

>  <H298_units>  (1) 
kcal/mol

>  <S298_value>  (1) 
69.87352357377613

>  <S298_units>  (1) 
cal/(mol*K)

>  <Cp_T_value_list>  (1) 
[22.564319032583768, 28.840217828992103, 34.67908993647054, 39.87690100285717, 48.46603693987715, 55.035350665777095, 65.2425045159811, 70.3687176992167, 72.85811412008621]

>  <Cp_T_units>  (1) 
cal/(mol*K)

>  <T_list>  (1) 
[300.0, 400.0, 500.0, 600.0, 800.0, 1000.0, 1500.0, 2000.0, 2400.0]

>  <T_units>  (1) 
K

>  <yaml_path>  (1) 
/home/calvin/Dropbox/PersonalFolders/Calvin/HAb_Converged/rxn_985/output/Species/rxn_985_CC[C]C/rxn_985_CCCC.yml

>  <frequencies_cm1>  (1) 
[210.98125697167998, 262.0098248846, 262.95060187343995, 368.94938727295994, 369.38200734812, 434.6183678881199, 803.94543935368, 924.2412881894401, 924.6395733379999, 953.43970977008, 975.9428206637199, 976.2449680178, 1191.00306691548, 1191.0854707393198, 1204.0572060088, 1353.00898458492, 1353.08452142344, 1393.0915778977599, 1393.29072047204, 1417.1809624003201, 1467.5090978106, 1473.88852717288, 1474.1082707031198, 1492.4019195956, 1492.5735942285999, 1500.73843977408, 2997.84424431388, 3000.20648726396, 3000.3575609409995, 3005.7069425052796, 3068.8076706107604, 3068.93814333184, 3077.5768108643997, 3080.1793983006796, 3083.73649669644, 3084.0180430945597]

>  <ZPE_kJmol>  (1) 
342.92005284467024

>  <E_elec_kJmol>  (1) 
-416059.77179639257

>  <E0_minus_Eelec_plus_ZPE_kJmol>  (1) 
0.0

>  <rxn>  (1) 
rxn_985

>  <species_type>  (1) 
r1

>  <species_folder>  (1) 
rxn_985_CC[C]C

>  <frequencies_cm1_list>  (1) 
[210.98125697167998, 262.0098248846, 262.95060187343995, 368.94938727295994, 369.38200734812, 434.6183678881199, 803.94543935368, 924.2412881894401, 924.6395733379999, 953.43970977008, 975.9428206637199, 976.2449680178, 1191.00306691548, 1191.0854707393198, 1204.0572060088, 1353.00898458492, 1353.08452142344, 1393.0915778977599, 1393.29072047204, 1417.1809624003201, 1467.5090978106, 1473.88852717288, 1474.1082707031198, 1492.4019195956, 1492.5735942285999, 1500.73843977408, 2997.84424431388, 3000.20648726396, 3000.3575609409995, 3005.7069425052796, 3068.8076706107604, 3068.93814333184, 3077.5768108643997, 3080.1793983006796, 3083.73649669644, 3084.0180430945597]

>  <E0_kJmol>  (1) 
-415717

>  <H298_kJmol>  (1) 
-415699

$$$$

     RDKit          3D

 11 10  0  0  0  0  0  0  0  0999 V2000
    0.0069   -0.9496   -1.4789 C   0  0  0  0  0  0  0  0  0  1  0  0
   -0.1221    0.2589   -0.5805 C   0  0  0  0  0  0  0  0  0  2  0  0
   -0.3728    0.0520    0.8372 C   0  0  0  0  0  0  0  0  0  3  0  0
   -0.9023   -1.3182    1.5392 S   0  0  0  0  0  0  0  0  0  4  0  0
    1.0578    1.5908   -0.9199 S   0  0  0  0  0  0  0  0  0  5  0  0
    0.9410   -1.4787   -1.2770 H   0  0  0  0  0  0  0  0  0  6  0  0
   -0.8120   -1.6459   -1.2994 H   0  0  0  0  0  0  0  0  0  7  0  0
    0.0043   -0.6440   -2.5249 H   0  0  0  0  0  0  0  0  0  8  0  0
   -0.2221    0.9406    1.4494 H   0  0  0  0  0  0  0  0  0  9  0  0
    2.1505    0.9623   -0.4611 H   0  0  0  0  0  0  0  0  0 10  0  0
   -1.0357    0.7433   -0.9249 H   0  0  0  0  0  0  0  0  0 11  0  0
  1  8  1  0
  1  7  1  0
  1  6  1  0
  1  2  1  0
  2 11  1  0
  2  5  1  0
  2  3  1  0
  3  9  1  0
  3  4  1  0
  5 10  1  0
M  END
>  <rmg_smiles>  (2) 
[S][CH]C(S)C

>  <rmg_adjacency_list>  (2) 
1  S u0 p2 c0 {3,S} {11,S}
2  S u0 p2 c0 {5,S}
3  C u0 p0 c0 {1,S} {4,S} {5,S} {6,S}
4  C u0 p0 c0 {3,S} {7,S} {8,S} {9,S}
5  C u0 p0 c0 {2,S} {3,S} {10,S}
6  H u0 p0 c0 {3,S}
7  H u0 p0 c0 {4,S}
8  H u0 p0 c0 {4,S}
9  H u0 p0 c0 {4,S}
10 H u0 p0 c0 {5,S}
11 H u0 p0 c0 {1,S}


>  <multiplicity>  (2) 
1

>  <reaction>  (2) 
rxn_985

>  <type>  (2) 
r2h

>  <role_mapnums>  (2) 
{"r2h_a": 2, "r2h_h": 11}

>  <role_mapidx>  (2) 
{"r2h_a": 1, "r2h_h": 10}

>  <ordered_mapped_smiles>  (2) 
[C:1]([C:2]([CH:3]([SH:4])[H:9])([S:5][H:10])[H:11])([H:6])([H:7])[H:8]

>  <mol_properties>  (2) 
{"1": {"label": "acceptor", "atom_type": "Cs"}, "10": {"label": "a_hydrogen", "atom_type": "H0"}}

>  <level_of_theory>  (2) 
wb97xd/def2tzvp

>  <lot_method>  (2) 
wb97xd

>  <lot_basis>  (2) 
def2tzvp

>  <spin_multiplicity>  (2) 
1.0

>  <optical_isomers>  (2) 
2.0

>  <modes>  (2) 
IdealGasTranslation(mass=(105.991, 'amu')),         NonlinearRotor(             inertia = ([89.5708, 281.116, 334.996

>  <frequency_value>  (2) 
unknown

>  <frequency_units>  (2) 
unknown

>  <frequency_list>  (2) 
unknown

>  <arkane_path>  (2) 
/home/calvin/Dropbox/PersonalFolders/Calvin/HAb_Converged/rxn_985/output/Species/rxn_985_CC[C=S]S/arkane/output.py

>  <path_exists>  (2) 
True

>  <E0_value>  (2) 
-2400319.162228284

>  <E0_units>  (2) 
kJ/mol

>  <thermo_class>  (2) 
NASA

>  <Cp0_value>  (2) 
33.257888

>  <Cp0_units>  (2) 
J/(mol*K)

>  <CpInf_value>  (2) 
257.748632

>  <CpInf_units>  (2) 
J/(mol*K)

>  <Tmin_value>  (2) 
10.0

>  <Tmin_units>  (2) 
K

>  <Tmax_value>  (2) 
3000.0

>  <Tmax_units>  (2) 
K

>  <polynomials>  (2) 
[{"name": "polynomial1", "class": "NASAPolynomial", "Tmin_value": 10.0, "Tmin_units": "K", "Tmax_value": 213.3428365177288, "Tmax_units": "K", "coeffs": [3.8247536777855875, 0.017151661039531946, 0.0001271021828908449, -4.6488747379545374e-07, 5.523324360529866e-10, -288691715.4758794, 11.853392235392128]}, {"name": "polynomial2", "class": "NASAPolynomial", "Tmin_value": 213.3428365177288, "Tmin_units": "K", "Tmax_value": 3000.0, "Tmax_units": "K", "coeffs": [2.678743717831134, 0.03863806708059261, -2.3965105109095725e-05, 7.169663786122436e-09, -8.265503532835025e-13, -288691666.57653993, 15.611826052912015]}]

>  <H298_value>  (2) 
-573685.353787409

>  <H298_units>  (2) 
kcal/mol

>  <S298_value>  (2) 
82.23962747696542

>  <S298_units>  (2) 
cal/(mol*K)

>  <Cp_T_value_list>  (2) 
[24.443018020947996, 29.285964025660572, 33.4865152276792, 37.11241795857413, 42.89155301844894, 47.086498598547244, 53.11318487748382, 56.092802545780735, 57.751349697154865]

>  <Cp_T_units>  (2) 
cal/(mol*K)

>  <T_list>  (2) 
[300.0, 400.0, 500.0, 600.0, 800.0, 1000.0, 1500.0, 2000.0, 2400.0]

>  <T_units>  (2) 
K

>  <yaml_path>  (2) 
/home/calvin/Dropbox/PersonalFolders/Calvin/HAb_Converged/rxn_985/output/Species/rxn_985_CC[C=S]S/rxn_985_CCC=SS.yml

>  <frequencies_cm1>  (2) 
[78.0776230884, 237.83116957288, 246.27756151647998, 261.803815325, 307.07098255444, 347.94327917908, 536.8403113616399, 647.2133664099999, 834.3799182919199, 854.93280535468, 904.74591686596, 1011.0331156489199, 1061.16897547024, 1102.98891606904, 1189.20391676164, 1225.11138299992, 1326.20714088096, 1372.0717358332397, 1412.7036879716798, 1470.8601866467598, 1475.4954017377597, 2690.43677947876, 3024.5224822820796, 3028.22378736956, 3082.0197503664394, 3103.4310105942004, 3117.84481278088]

>  <ZPE_kJmol>  (2) 
215.03144428280424

>  <E_elec_kJmol>  (2) 
-2400534.1936725667

>  <E0_minus_Eelec_plus_ZPE_kJmol>  (2) 
0.0

>  <rxn>  (2) 
rxn_985

>  <species_type>  (2) 
p0

>  <species_folder>  (2) 
rxn_985_CC[C=S]S

>  <frequencies_cm1_list>  (2) 
[78.0776230884, 237.83116957288, 246.27756151647998, 261.803815325, 307.07098255444, 347.94327917908, 536.8403113616399, 647.2133664099999, 834.3799182919199, 854.93280535468, 904.74591686596, 1011.0331156489199, 1061.16897547024, 1102.98891606904, 1189.20391676164, 1225.11138299992, 1326.20714088096, 1372.0717358332397, 1412.7036879716798, 1470.8601866467598, 1475.4954017377597, 2690.43677947876, 3024.5224822820796, 3028.22378736956, 3082.0197503664394, 3103.4310105942004, 3117.84481278088]

>  <E0_kJmol>  (2) 
-2.40032e+06

>  <H298_kJmol>  (2) 
-2.4003e+06

$$$$

     RDKit          3D

 24 22  0  0  0  0  0  0  0  0999 V2000
    0.8559   -1.2198   -0.9639 C   0  0  0  0  0  0  0  0  0  1  0  0
    0.7269   -0.0113   -0.0655 C   0  0  0  0  0  0  0  0  0  2  0  0
    0.4762   -0.2182    1.3521 C   0  0  0  0  0  0  0  0  0  3  0  0
   -0.0533   -1.5884    2.0542 S   0  0  0  0  0  0  0  0  0  4  0  0
    1.9068    1.3206   -0.4050 S   0  0  0  0  0  0  0  0  0  5  0  0
    1.7900   -1.7489   -0.7621 H   0  0  0  0  0  0  0  0  0  6  0  0
    0.0370   -1.9161   -0.7844 H   0  0  0  0  0  0  0  0  0  7  0  0
    0.8533   -0.9142   -2.0099 H   0  0  0  0  0  0  0  0  0  8  0  0
    0.6269    0.6704    1.9644 H   0  0  0  0  0  0  0  0  0  9  0  0
    2.9995    0.6921    0.0538 H   0  0  0  0  0  0  0  0  0 10  0  0
   -1.2126    1.7994   -2.2325 C   0  0  0  0  0  0  0  0  0 11  0  0
   -1.5840    1.1119   -0.9510 C   0  0  0  0  0  3  0  0  0 12  0  0
   -1.9121    2.0023    0.2121 C   0  0  0  0  0  0  0  0  0 13  0  0
   -2.4276   -0.1234   -1.0809 C   0  0  0  0  0  0  0  0  0 14  0  0
   -0.4857    2.5961   -2.0674 H   0  0  0  0  0  0  0  0  0 15  0  0
   -2.1020    2.2537   -2.6880 H   0  0  0  0  0  0  0  0  0 16  0  0
   -0.7977    1.0976   -2.9580 H   0  0  0  0  0  0  0  0  0 17  0  0
   -0.3351    0.5518   -0.4659 H   0  0  0  0  0  0  0  0  0 18  0  0
   -2.8823    2.4897    0.0570 H   0  0  0  0  0  0  0  0  0 19  0  0
   -1.9796    1.4312    1.1408 H   0  0  0  0  0  0  0  0  0 20  0  0
   -1.1638    2.7868    0.3396 H   0  0  0  0  0  0  0  0  0 21  0  0
   -2.0669   -0.7743   -1.8785 H   0  0  0  0  0  0  0  0  0 22  0  0
   -3.4635    0.1495   -1.3191 H   0  0  0  0  0  0  0  0  0 23  0  0
   -2.4442   -0.6928   -0.1494 H   0  0  0  0  0  0  0  0  0 24  0  0
  1  7  1  0
  1  8  1  0
  1  6  1  0
  1  2  1  0
  2  3  1  0
  2 18  1  0
  2  5  1  0
  3  9  1  0
  3  4  1  0
  5 10  1  0
 11 17  1  0
 11 12  1  0
 11 16  1  0
 11 15  1  0
 12 13  1  0
 12 14  1  0
 13 19  1  0
 13 21  1  0
 13 20  1  0
 14 24  1  0
 14 23  1  0
 14 22  1  0
M  RAD  1  12   2
M  END
>  <rmg_smiles>  (3) 
C[C](C)C.[S][CH]C(S)C

>  <rmg_adjacency_list>  (3) 
multiplicity 2
1  S u0 p2 c0 {3,S} {24,S}
2  S u0 p2 c0 {9,S}
3  C u0 p0 c0 {1,S} {4,S} {9,S} {10,S}
4  C u0 p0 c0 {3,S} {11,S} {12,S} {13,S}
5  C u0 p0 c0 {8,S} {14,S} {15,S} {16,S}
6  C u0 p0 c0 {8,S} {17,S} {18,S} {19,S}
7  C u0 p0 c0 {8,S} {20,S} {21,S} {22,S}
8  C u1 p0 c0 {5,S} {6,S} {7,S}
9  C u0 p0 c0 {2,S} {3,S} {23,S}
10 H u0 p0 c0 {3,S}
11 H u0 p0 c0 {4,S}
12 H u0 p0 c0 {4,S}
13 H u0 p0 c0 {4,S}
14 H u0 p0 c0 {5,S}
15 H u0 p0 c0 {5,S}
16 H u0 p0 c0 {5,S}
17 H u0 p0 c0 {6,S}
18 H u0 p0 c0 {6,S}
19 H u0 p0 c0 {6,S}
20 H u0 p0 c0 {7,S}
21 H u0 p0 c0 {7,S}
22 H u0 p0 c0 {7,S}
23 H u0 p0 c0 {9,S}
24 H u0 p0 c0 {1,S}


>  <multiplicity>  (3) 
2

>  <reaction>  (3) 
rxn_985

>  <type>  (3) 
ts

>  <role_mapnums>  (3) 
{"*2": 18, "*1": 12, "*3": 2, "*0": 3, "*4": 11}

>  <role_mapidx>  (3) 
{"*2": 17, "*1": 11, "*3": 1, "*0": 2, "*4": 10}

>  <ordered_mapped_smiles>  (3) 
[C:1]([C:2]([CH:3]([SH:4])[H:9])([S:5][H:10])[H:18])([H:6])([H:7])[H:8].[C:11]([C:12]([C:13]([H:19])([H:20])[H:21])[C:14]([H:22])([H:23])[H:24])([H:15])([H:16])[H:17]

>  <mol_properties>  (3) 
{"1": {"label": "*3", "atom_type": "Cs"}, "2": {"label": "*0", "atom_type": "Cs"}, "10": {"label": "*4", "atom_type": "Cs"}, "11": {"label": "*1", "atom_type": "Cs"}, "17": {"label": "*2", "atom_type": "H0"}}

>  <level_of_theory>  (3) 
wb97xd/def2tzvp

>  <lot_method>  (3) 
wb97xd

>  <lot_basis>  (3) 
def2tzvp

>  <spin_multiplicity>  (3) 
2.0

>  <optical_isomers>  (3) 
2.0

>  <modes>  (3) 
IdealGasTranslation(mass=(163.062, 'amu')),         NonlinearRotor(             inertia = ([439.292, 612.677, 811.202

>  <frequency_value>  (3) 
-1223.81

>  <frequency_units>  (3) 
cm^-1

>  <frequency_list>  (3) 
unknown

>  <arkane_path>  (3) 
/home/calvin/Dropbox/PersonalFolders/Calvin/HAb_Converged/rxn_985/output/rxns/TS0/arkane/output.py

>  <path_exists>  (3) 
True

>  <E0_value>  (3) 
-2814320.0

>  <E0_units>  (3) 
kJ/mol

>  <thermo_class>  (3) 
unknown

>  <Cp0_value>  (3) 
unknown

>  <Cp0_units>  (3) 
unknown

>  <CpInf_value>  (3) 
unknown

>  <CpInf_units>  (3) 
unknown

>  <Tmin_value>  (3) 
unknown

>  <Tmin_units>  (3) 
unknown

>  <Tmax_value>  (3) 
unknown

>  <Tmax_units>  (3) 
unknown

>  <polynomials>  (3) 
unknown

>  <H298_value>  (3) 
unknown

>  <H298_units>  (3) 
unknown

>  <S298_value>  (3) 
unknown

>  <S298_units>  (3) 
unknown

>  <Cp_T_value_list>  (3) 
unknown

>  <Cp_T_units>  (3) 
unknown

>  <T_list>  (3) 
unknown

>  <T_units>  (3) 
unknown

>  <yaml_path>  (3) 
unknown

>  <frequencies_cm1>  (3) 
unknown

>  <ZPE_kJmol>  (3) 
unknown

>  <E_elec_kJmol>  (3) 
unknown

>  <E0_minus_Eelec_plus_ZPE_kJmol>  (3) 
unknown

>  <rxn>  (3) 
unknown

>  <species_type>  (3) 
unknown

>  <species_folder>  (3) 
unknown

>  <frequencies_cm1_list>  (3) 
[]

>  <ts_imag_freq_cm1>  (3) 
-1238.6781

>  <ts_freq_out_path>  (3) 
/home/calvin/Dropbox/PersonalFolders/Calvin/HAb_Converged/rxn_985/output/rxns/TS0/geometry/freq.out

>  <E0_kJmol>  (3) 
-2.81432e+06

>  <H298_kJmol>  (3) 
unknown

$$$$

     RDKit          3D

 13 12  0  0  0  0  0  0  0  0999 V2000
   -1.3649   -0.5967   -0.3477 C   0  0  0  0  0  0  0  0  0  1  0  0
   -0.1601   -0.2776    0.4669 C   0  0  0  0  0  3  0  0  0  2  0  0
    1.1241   -0.9571    0.1414 C   0  0  0  0  0  0  0  0  0  3  0  0
   -0.1188    1.0130    1.2082 C   0  0  0  0  0  0  0  0  0  4  0  0
   -1.4265   -1.6632   -0.5770 H   0  0  0  0  0  0  0  0  0  5  0  0
   -2.2859   -0.3004    0.1602 H   0  0  0  0  0  0  0  0  0  6  0  0
   -1.3532   -0.0668   -1.3139 H   0  0  0  0  0  0  0  0  0  7  0  0
    1.6174   -0.4963   -0.7297 H   0  0  0  0  0  0  0  0  0  8  0  0
    0.9723   -2.0104   -0.1064 H   0  0  0  0  0  0  0  0  0  9  0  0
    1.8338   -0.8977    0.9701 H   0  0  0  0  0  0  0  0  0 10  0  0
   -1.0851    1.2507    1.6593 H   0  0  0  0  0  0  0  0  0 11  0  0
    0.6358    1.0009    1.9983 H   0  0  0  0  0  0  0  0  0 12  0  0
    0.1343    1.8546    0.5434 H   0  0  0  0  0  0  0  0  0 13  0  0
  1  5  1  0
  1  7  1  0
  1  6  1  0
  1  2  1  0
  2  3  1  0
  2  4  1  0
  3  9  1  0
  3 10  1  0
  3  8  1  0
  4 13  1  0
  4 12  1  0
  4 11  1  0
M  RAD  1   2   2
M  END
>  <rmg_smiles>  (4) 
C[C](C)C

>  <rmg_adjacency_list>  (4) 
multiplicity 2
1  C u0 p0 c0 {4,S} {5,S} {6,S} {7,S}
2  C u0 p0 c0 {4,S} {8,S} {9,S} {10,S}
3  C u0 p0 c0 {4,S} {11,S} {12,S} {13,S}
4  C u1 p0 c0 {1,S} {2,S} {3,S}
5  H u0 p0 c0 {1,S}
6  H u0 p0 c0 {1,S}
7  H u0 p0 c0 {1,S}
8  H u0 p0 c0 {2,S}
9  H u0 p0 c0 {2,S}
10 H u0 p0 c0 {2,S}
11 H u0 p0 c0 {3,S}
12 H u0 p0 c0 {3,S}
13 H u0 p0 c0 {3,S}


>  <multiplicity>  (4) 
2

>  <reaction>  (4) 
rxn_985

>  <type>  (4) 
r1

>  <role_mapnums>  (4) 
{}

>  <role_mapidx>  (4) 
{}

>  <ordered_mapped_smiles>  (4) 
[C:1]([C:2]([C:3]([H:8])([H:9])[H:10])[C:4]([H:11])([H:12])[H:13])([H:5])([H:6])[H:7]

>  <level_of_theory>  (4) 
wb97xd/def2tzvp

>  <lot_method>  (4) 
wb97xd

>  <lot_basis>  (4) 
def2tzvp

>  <spin_multiplicity>  (4) 
2.0

>  <optical_isomers>  (4) 
1.0

>  <modes>  (4) 
IdealGasTranslation(mass=(57.0704, 'amu')),         NonlinearRotor(             inertia = ([62.748, 62.7522, 115.629

>  <frequency_value>  (4) 
unknown

>  <frequency_units>  (4) 
unknown

>  <frequency_list>  (4) 
unknown

>  <arkane_path>  (4) 
/home/calvin/Dropbox/PersonalFolders/Calvin/HAb_Converged/rxn_985/output/Species/rxn_985_C[C][C]C/arkane/output.py

>  <path_exists>  (4) 
True

>  <E0_value>  (4) 
-414011.8777754834

>  <E0_units>  (4) 
kJ/mol

>  <thermo_class>  (4) 
NASA

>  <Cp0_value>  (4) 
33.257888

>  <Cp0_units>  (4) 
J/(mol*K)

>  <CpInf_value>  (4) 
307.635464

>  <CpInf_units>  (4) 
J/(mol*K)

>  <Tmin_value>  (4) 
10.0

>  <Tmin_units>  (4) 
K

>  <Tmax_value>  (4) 
3000.0

>  <Tmax_units>  (4) 
K

>  <polynomials>  (4) 
[{"name": "polynomial1", "class": "NASAPolynomial", "Tmin_value": 10.0, "Tmin_units": "K", "Tmax_value": 459.70330122229564, "Tmax_units": "K", "coeffs": [3.627970729128862, 0.0378812132654776, -9.026747053683562e-05, 2.3268448374574933e-07, -1.9514225159328276e-10, -49794126.79812595, 8.375646160062546]}, {"name": "polynomial2", "class": "NASAPolynomial", "Tmin_value": 459.70330122229564, "Tmin_units": "K", "Tmax_value": 3000.0, "Tmax_units": "K", "coeffs": [-0.4762456722616014, 0.045776919506912164, -2.526752448503571e-05, 6.7947598770974e-09, -7.147661710210158e-13, -49793455.538239546, 28.183223425070146]}]

>  <H298_value>  (4) 
-98946.57454886896

>  <H298_units>  (4) 
kcal/mol

>  <S298_value>  (4) 
75.49974851550071

>  <S298_units>  (4) 
cal/(mol*K)

>  <Cp_T_value_list>  (4) 
[22.992160416875937, 28.285551696534462, 33.58379991920379, 38.290750089266616, 46.02414590049745, 51.892207640664246, 60.909894959701354, 65.43735019503093, 67.69211190191054]

>  <Cp_T_units>  (4) 
cal/(mol*K)

>  <T_list>  (4) 
[300.0, 400.0, 500.0, 600.0, 800.0, 1000.0, 1500.0, 2000.0, 2400.0]

>  <T_units>  (4) 
K

>  <yaml_path>  (4) 
/home/calvin/Dropbox/PersonalFolders/Calvin/HAb_Converged/rxn_985/output/Species/rxn_985_C[C][C]C/rxn_985_CCCC.yml

>  <frequencies_cm1>  (4) 
[124.93106392675999, 128.22034989504002, 129.15425989855999, 257.15486626336, 382.49794930931995, 382.86189953127996, 764.0551216298, 930.29110225636, 930.3460381389199, 963.9324633390399, 1004.2004652555198, 1004.5300805508798, 1087.7098737320398, 1293.65763046416, 1293.75376825864, 1387.1997044931998, 1387.5361867738798, 1410.6573263463201, 1453.51418172844, 1456.4807193866798, 1456.74166482884, 1475.6464754148, 1478.0018513795599, 1478.2284618951198, 2923.2138478561196, 2923.605266019359, 2931.09028001816, 3026.2941644946404, 3027.06326685048, 3028.0727136925198, 3072.2892321679997, 3076.10727600592, 3076.7184376994]

>  <ZPE_kJmol>  (4) 
303.52712463534266

>  <E_elec_kJmol>  (4) 
-414315.4049001188

>  <E0_minus_Eelec_plus_ZPE_kJmol>  (4) 
0.0

>  <rxn>  (4) 
rxn_985

>  <species_type>  (4) 
p1

>  <species_folder>  (4) 
rxn_985_C[C][C]C

>  <frequencies_cm1_list>  (4) 
[124.93106392675999, 128.22034989504002, 129.15425989855999, 257.15486626336, 382.49794930931995, 382.86189953127996, 764.0551216298, 930.29110225636, 930.3460381389199, 963.9324633390399, 1004.2004652555198, 1004.5300805508798, 1087.7098737320398, 1293.65763046416, 1293.75376825864, 1387.1997044931998, 1387.5361867738798, 1410.6573263463201, 1453.51418172844, 1456.4807193866798, 1456.74166482884, 1475.6464754148, 1478.0018513795599, 1478.2284618951198, 2923.2138478561196, 2923.605266019359, 2931.09028001816, 3026.2941644946404, 3027.06326685048, 3028.0727136925198, 3072.2892321679997, 3076.10727600592, 3076.7184376994]

>  <E0_kJmol>  (4) 
-414012

>  <H298_kJmol>  (4) 
-413992

$$$$

     RDKit          3D

 10  9  0  0  0  0  0  0  0  0999 V2000
   -1.3354   -0.2069    0.0525 C   0  0  0  0  0  0  0  0  0  1  0  0
    0.0851    0.2624    0.0266 C   0  0  0  0  0  0  0  0  0  2  0  0
    0.4841    1.3876    0.7359 C   0  0  0  0  0  0  0  0  0  3  0  0
    2.0191    2.0303    0.8057 S   0  0  0  0  0  1  0  0  0  4  0  0
    1.1566   -0.6823   -0.9297 S   0  0  0  0  0  0  0  0  0  5  0  0
   -1.7589   -0.2174   -0.9545 H   0  0  0  0  0  0  0  0  0  6  0  0
   -1.4004   -1.2253    0.4427 H   0  0  0  0  0  0  0  0  0  7  0  0
   -1.9442    0.4442    0.6783 H   0  0  0  0  0  0  0  0  0  8  0  0
   -0.3073    1.8814    1.2951 H   0  0  0  0  0  0  0  0  0  9  0  0
    2.2383    0.0827   -0.6554 H   0  0  0  0  0  0  0  0  0 10  0  0
  1  8  1  0
  1  7  1  0
  1  6  1  0
  1  2  1  0
  2  5  1  0
  2  3  1  0
  3  9  1  0
  3  4  1  0
  5 10  1  0
M  RAD  1   4   2
M  END
>  <rmg_smiles>  (5) 
[S][CH][C](S)C

>  <rmg_adjacency_list>  (5) 
multiplicity 2
1  S u0 p2 c0 {4,S} {10,S}
2  S u1 p2 c0 {5,S}
3  C u0 p0 c0 {4,S} {6,S} {7,S} {8,S}
4  C u0 p0 c0 {1,S} {3,S} {5,S}
5  C u0 p0 c0 {2,S} {4,S} {9,S}
6  H u0 p0 c0 {3,S}
7  H u0 p0 c0 {3,S}
8  H u0 p0 c0 {3,S}
9  H u0 p0 c0 {5,S}
10 H u0 p0 c0 {1,S}


>  <multiplicity>  (5) 
2

>  <reaction>  (5) 
rxn_985

>  <type>  (5) 
r2

>  <role_mapnums>  (5) 
{}

>  <role_mapidx>  (5) 
{}

>  <ordered_mapped_smiles>  (5) 
[C:1]([CH:2]([CH:3]([S:4])[H:9])[S:5][H:10])([H:6])([H:7])[H:8]

>  <level_of_theory>  (5) 
wb97xd/def2tzvp

>  <lot_method>  (5) 
wb97xd

>  <lot_basis>  (5) 
def2tzvp

>  <spin_multiplicity>  (5) 
2.0

>  <optical_isomers>  (5) 
1.0

>  <modes>  (5) 
IdealGasTranslation(mass=(104.983, 'amu')),         NonlinearRotor(             inertia = ([100.49, 235.605, 332.975

>  <frequency_value>  (5) 
unknown

>  <frequency_units>  (5) 
unknown

>  <frequency_list>  (5) 
unknown

>  <arkane_path>  (5) 
/home/calvin/Dropbox/PersonalFolders/Calvin/HAb_Converged/rxn_985/output/Species/rxn_985_C[C][C=S]S/arkane/output.py

>  <path_exists>  (5) 
True

>  <E0_value>  (5) 
-2398728.4301469023

>  <E0_units>  (5) 
kJ/mol

>  <thermo_class>  (5) 
NASA

>  <Cp0_value>  (5) 
33.257888

>  <Cp0_units>  (5) 
J/(mol*K)

>  <CpInf_value>  (5) 
232.805216

>  <CpInf_units>  (5) 
J/(mol*K)

>  <Tmin_value>  (5) 
10.0

>  <Tmin_units>  (5) 
K

>  <Tmax_value>  (5) 
3000.0

>  <Tmax_units>  (5) 
K

>  <polynomials>  (5) 
[{"name": "polynomial1", "class": "NASAPolynomial", "Tmin_value": 10.0, "Tmin_units": "K", "Tmax_value": 174.00742372406597, "Tmax_units": "K", "coeffs": [3.9082058253441123, 0.009872551782220242, 0.00020576446768898134, -8.728955868876116e-07, 1.2640504121643023e-09, -288500402.10576785, 11.702693517236941]}, {"name": "polynomial2", "class": "NASAPolynomial", "Tmin_value": 174.00742372406597, "Tmin_units": "K", "Tmax_value": 3000.0, "Tmax_units": "K", "coeffs": [2.748323742656005, 0.03653438414684416, -2.4060609363145755e-05, 7.590132630341355e-09, -9.145197937171641e-13, -288500361.7386565, 15.270260694505282]}]

>  <H298_value>  (5) 
-573305.3360949025

>  <H298_units>  (5) 
kcal/mol

>  <S298_value>  (5) 
81.10142724643157

>  <S298_units>  (5) 
cal/(mol*K)

>  <Cp_T_value_list>  (5) 
[23.331215465804252, 27.770687589407803, 31.58063119811146, 34.831917988815256, 39.92019982767163, 43.51527437656964, 48.488772744624626, 50.998473184397035, 52.51423165571242]

>  <Cp_T_units>  (5) 
cal/(mol*K)

>  <T_list>  (5) 
[300.0, 400.0, 500.0, 600.0, 800.0, 1000.0, 1500.0, 2000.0, 2400.0]

>  <T_units>  (5) 
K

>  <yaml_path>  (5) 
/home/calvin/Dropbox/PersonalFolders/Calvin/HAb_Converged/rxn_985/output/Species/rxn_985_C[C][C=S]S/rxn_985_CCC=SS.yml

>  <frequencies_cm1>  (5) 
[87.10770878419999, 202.9537511326, 210.78211439739997, 327.18438255672, 442.76261247763995, 467.34641992324003, 480.1258796037599, 647.00048986508, 830.9876275438398, 879.7157553745599, 933.5735212393199, 1024.4992738614399, 1031.5035988878399, 1155.4389499432, 1323.3985438850798, 1397.47958151724, 1408.19207861644, 1459.59833072196, 1480.63877374244, 2543.7099041463202, 3014.00912775716, 3075.6540549747997, 3103.5683503006, 3112.8799823945196]

>  <ZPE_kJmol>  (5) 
183.2686140129936

>  <E_elec_kJmol>  (5) 
-2398911.6987609155

>  <E0_minus_Eelec_plus_ZPE_kJmol>  (5) 
0.0

>  <rxn>  (5) 
rxn_985

>  <species_type>  (5) 
r0

>  <species_folder>  (5) 
rxn_985_C[C][C=S]S

>  <frequencies_cm1_list>  (5) 
[87.10770878419999, 202.9537511326, 210.78211439739997, 327.18438255672, 442.76261247763995, 467.34641992324003, 480.1258796037599, 647.00048986508, 830.9876275438398, 879.7157553745599, 933.5735212393199, 1024.4992738614399, 1031.5035988878399, 1155.4389499432, 1323.3985438850798, 1397.47958151724, 1408.19207861644, 1459.59833072196, 1480.63877374244, 2543.7099041463202, 3014.00912775716, 3075.6540549747997, 3103.5683503006, 3112.8799823945196]

>  <E0_kJmol>  (5) 
-2.39873e+06

>  <H298_kJmol>  (5) 
-2.39871e+06

$$$$
