
     RDKit          3D

 25 26  0  0  0  0  0  0  0  0999 V2000
   -0.0460    0.3972   -0.7008 C   0  0  0  0  0  0  0  0  0  1  0  0
    0.2548   -0.7080    0.3135 C   0  0  0  0  0  0  0  0  0  2  0  0
   -1.3117    1.1501   -0.3352 C   0  0  0  0  0  0  0  0  0  3  0  0
    0.0261   -0.3435   -2.0309 C   0  0  0  0  0  0  0  0  0  4  0  0
    0.4393   -0.1431    1.7137 C   0  0  0  0  0  0  0  0  0  5  0  0
   -1.1782    1.7174    1.0817 C   0  0  0  0  0  0  0  0  0  6  0  0
   -0.8124    0.6444    2.1108 C   0  0  0  0  0  0  0  0  0  7  0  0
    1.2292   -1.2948   -1.8497 C   0  0  0  0  0  0  0  0  0  8  0  0
    1.3790   -1.4681   -0.3437 C   0  0  0  0  0  0  0  0  0  9  0  0
    0.7936    1.1042   -0.6676 H   0  0  0  0  0  0  0  0  0 10  0  0
   -0.6290   -1.3685    0.3420 H   0  0  0  0  0  0  0  0  0 11  0  0
    0.1409    0.3215   -2.8876 H   0  0  0  0  0  0  0  0  0 12  0  0
   -0.8938   -0.9179   -2.1789 H   0  0  0  0  0  0  0  0  0 13  0  0
   -1.5103    1.9556   -1.0469 H   0  0  0  0  0  0  0  0  0 14  0  0
   -2.1670    0.4655   -0.3815 H   0  0  0  0  0  0  0  0  0 15  0  0
   -0.3982    2.4871    1.0785 H   0  0  0  0  0  0  0  0  0 16  0  0
   -2.1042    2.2144    1.3792 H   0  0  0  0  0  0  0  0  0 17  0  0
   -0.6732    1.1050    3.0915 H   0  0  0  0  0  0  0  0  0 18  0  0
   -1.6507   -0.0541    2.2102 H   0  0  0  0  0  0  0  0  0 19  0  0
    0.6344   -0.9382    2.4379 H   0  0  0  0  0  0  0  0  0 20  0  0
    1.3116    0.5193    1.7247 H   0  0  0  0  0  0  0  0  0 21  0  0
    2.2865   -0.9256   -0.0873 H   0  0  0  0  0  0  0  0  0 22  0  0
    2.1311   -0.8416   -2.2746 H   0  0  0  0  0  0  0  0  0 23  0  0
    1.0874   -2.2471   -2.3647 H   0  0  0  0  0  0  0  0  0 24  0  0
    1.6085   -2.4627    0.0326 H   0  0  0  0  0  0  0  0  0 25  0  0
  1  3  1  0
  1  4  1  0
  1 10  1  0
  1  2  1  0
  2 11  1  0
  2  5  1  0
  2  9  1  0
  3 15  1  0
  3 14  1  0
  3  6  1  0
  4 12  1  0
  4 13  1  0
  4  8  1  0
  5 20  1  0
  5  7  1  0
  5 21  1  0
  6  7  1  0
  6 16  1  0
  6 17  1  0
  7 18  1  0
  7 19  1  0
  8 23  1  0
  8  9  1  0
  8 24  1  0
  9 25  1  0
  9 22  1  0
M  END
>  <rmg_smiles>  (1) 
C1CCC2CCCC2C1

>  <rmg_adjacency_list>  (1) 
1  C u0 p0 c0 {2,S} {3,S} {4,S} {10,S}
2  C u0 p0 c0 {1,S} {5,S} {6,S} {11,S}
3  C u0 p0 c0 {1,S} {7,S} {14,S} {15,S}
4  C u0 p0 c0 {1,S} {9,S} {12,S} {13,S}
5  C u0 p0 c0 {2,S} {8,S} {20,S} {21,S}
6  C u0 p0 c0 {2,S} {9,S} {22,S} {25,S}
7  C u0 p0 c0 {3,S} {8,S} {16,S} {17,S}
8  C u0 p0 c0 {5,S} {7,S} {18,S} {19,S}
9  C u0 p0 c0 {4,S} {6,S} {23,S} {24,S}
10 H u0 p0 c0 {1,S}
11 H u0 p0 c0 {2,S}
12 H u0 p0 c0 {4,S}
13 H u0 p0 c0 {4,S}
14 H u0 p0 c0 {3,S}
15 H u0 p0 c0 {3,S}
16 H u0 p0 c0 {7,S}
17 H u0 p0 c0 {7,S}
18 H u0 p0 c0 {8,S}
19 H u0 p0 c0 {8,S}
20 H u0 p0 c0 {5,S}
21 H u0 p0 c0 {5,S}
22 H u0 p0 c0 {6,S}
23 H u0 p0 c0 {9,S}
24 H u0 p0 c0 {9,S}
25 H u0 p0 c0 {6,S}


>  <multiplicity>  (1) 
1

>  <reaction>  (1) 
rxn_582

>  <type>  (1) 
r1h

>  <role_mapnums>  (1) 
{"r1h_a": 9, "r1h_h": 22}

>  <role_mapidx>  (1) 
{"r1h_a": 8, "r1h_h": 21}

>  <ordered_mapped_smiles>  (1) 
[C:1]12([H:10])[C:2]([H:11])([C:5]([H:20])([H:21])[C:7]([H:18])([H:19])[C:6]([H:16])([H:17])[C:3]1([H:14])[H:15])[C:9]([H:22])([H:25])[C:8]([H:23])([H:24])[C:4]2([H:12])[H:13]

>  <mol_properties>  (1) 
{"8": {"label": "donator", "atom_type": "Cs"}, "21": {"label": "d_hydrogen", "atom_type": "H0"}}

>  <level_of_theory>  (1) 
wb97xd/def2tzvp

>  <lot_method>  (1) 
wb97xd

>  <lot_basis>  (1) 
def2tzvp

>  <spin_multiplicity>  (1) 
1.0

>  <optical_isomers>  (1) 
2.0

>  <modes>  (1) 
IdealGasTranslation(mass=(124.125, 'amu')),         NonlinearRotor(             inertia = ([170.024, 375.242, 505.424

>  <frequency_value>  (1) 
unknown

>  <frequency_units>  (1) 
unknown

>  <frequency_list>  (1) 
unknown

>  <arkane_path>  (1) 
/home/calvin/Dropbox/PersonalFolders/Calvin/HAb_Converged/rxn_582/output/Species/rxn_582_C1CCC2CCCC2C1/arkane/output.py

>  <path_exists>  (1) 
True

>  <E0_value>  (1) 
-925233.0049241188

>  <E0_units>  (1) 
kJ/mol

>  <thermo_class>  (1) 
NASA

>  <Cp0_value>  (1) 
33.257888

>  <Cp0_units>  (1) 
J/(mol*K)

>  <CpInf_value>  (1) 
606.956456

>  <CpInf_units>  (1) 
J/(mol*K)

>  <Tmin_value>  (1) 
10.0

>  <Tmin_units>  (1) 
K

>  <Tmax_value>  (1) 
3000.0

>  <Tmax_units>  (1) 
K

>  <polynomials>  (1) 
[{"name": "polynomial1", "class": "NASAPolynomial", "Tmin_value": 10.0, "Tmin_units": "K", "Tmax_value": 492.86414085374884, "Tmax_units": "K", "coeffs": [4.007994789865864, -0.0014434969438387518, 0.0002774235318770471, -4.47143959124011e-07, 2.345687014006794e-10, -111279824.80461533, 12.742603075803766]}, {"name": "polynomial2", "class": "NASAPolynomial", "Tmin_value": 492.86414085374884, "Tmin_units": "K", "Tmax_value": 3000.0, "Tmax_units": "K", "coeffs": [-9.95853370242537, 0.11191389639895702, -6.759505783925652e-05, 1.9571966588871765e-08, -2.183492026273649e-12, -111278448.17509678, 70.24048730977755]}]

>  <H298_value>  (1) 
-221130.41480672767

>  <H298_units>  (1) 
kcal/mol

>  <S298_value>  (1) 
87.40258332007863

>  <S298_units>  (1) 
cal/(mol*K)

>  <Cp_T_value_list>  (1) 
[36.50534740058796, 50.089738669944325, 62.417515537946755, 73.12949241055418, 90.29515590280347, 102.83551087971135, 120.87161605712708, 129.42454969138163, 133.951878152645]

>  <Cp_T_units>  (1) 
cal/(mol*K)

>  <T_list>  (1) 
[300.0, 400.0, 500.0, 600.0, 800.0, 1000.0, 1500.0, 2000.0, 2400.0]

>  <T_units>  (1) 
K

>  <yaml_path>  (1) 
/home/calvin/Dropbox/PersonalFolders/Calvin/HAb_Converged/rxn_582/output/Species/rxn_582_C1CCC2CCCC2C1/rxn_582_C1CCC2CCCC2C1.yml

>  <frequencies_cm1>  (1) 
[79.74630052116, 161.44969185852, 192.46099756363998, 319.95344701476, 325.08995203411996, 337.32691987436, 425.16252910247994, 470.50523317043996, 497.06673238819997, 579.3538174777599, 623.59780389452, 769.3495673115199, 782.1839628746, 837.42199278868, 848.74565158136, 873.0204446875598, 907.5545138618398, 921.7142375916799, 922.5451428153999, 945.43967187228, 987.1978096031999, 1015.3867843418, 1044.03584709684, 1066.28487953364, 1072.4857672776, 1096.98030391404, 1116.2696656779199, 1122.75209982, 1142.3985448205199, 1202.0657802659998, 1207.82031396416, 1217.5508321625998, 1256.61711164808, 1262.63945777372, 1284.5314069738797, 1286.2687542598399, 1313.97704002604, 1316.9847795961998, 1320.6311488011202, 1339.9411115209598, 1339.9754464475598, 1365.2322184545199, 1368.74811493836, 1376.8580246012798, 1398.55083122716, 1401.5036349147601, 1472.50826312356, 1476.82072990452, 1478.06365424744, 1478.81215564732, 1486.92206531024, 1491.0628574582, 1506.3831017071197, 2950.4551786205598, 2962.34193020948, 2991.31374127456, 2991.7532283350397, 2996.8759993837602, 3001.07172741428, 3015.06664349644, 3015.65720423396, 3043.90798184044, 3044.3474689009204, 3044.821290888, 3053.3088847435192, 3057.07199269888, 3062.7784574998, 3072.117557535, 3090.8781614292393]

>  <ZPE_kJmol>  (1) 
613.2521071062491

>  <E_elec_kJmol>  (1) 
-925846.257031225

>  <E0_minus_Eelec_plus_ZPE_kJmol>  (1) 
0.0

>  <rxn>  (1) 
rxn_582

>  <species_type>  (1) 
r1

>  <species_folder>  (1) 
rxn_582_C1CCC2CCCC2C1

>  <frequencies_cm1_list>  (1) 
[79.74630052116, 161.44969185852, 192.46099756363998, 319.95344701476, 325.08995203411996, 337.32691987436, 425.16252910247994, 470.50523317043996, 497.06673238819997, 579.3538174777599, 623.59780389452, 769.3495673115199, 782.1839628746, 837.42199278868, 848.74565158136, 873.0204446875598, 907.5545138618398, 921.7142375916799, 922.5451428153999, 945.43967187228, 987.1978096031999, 1015.3867843418, 1044.03584709684, 1066.28487953364, 1072.4857672776, 1096.98030391404, 1116.2696656779199, 1122.75209982, 1142.3985448205199, 1202.0657802659998, 1207.82031396416, 1217.5508321625998, 1256.61711164808, 1262.63945777372, 1284.5314069738797, 1286.2687542598399, 1313.97704002604, 1316.9847795961998, 1320.6311488011202, 1339.9411115209598, 1339.9754464475598, 1365.2322184545199, 1368.74811493836, 1376.8580246012798, 1398.55083122716, 1401.5036349147601, 1472.50826312356, 1476.82072990452, 1478.06365424744, 1478.81215564732, 1486.92206531024, 1491.0628574582, 1506.3831017071197, 2950.4551786205598, 2962.34193020948, 2991.31374127456, 2991.7532283350397, 2996.8759993837602, 3001.07172741428, 3015.06664349644, 3015.65720423396, 3043.90798184044, 3044.3474689009204, 3044.821290888, 3053.3088847435192, 3057.07199269888, 3062.7784574998, 3072.117557535, 3090.8781614292393]

>  <E0_kJmol>  (1) 
-925233

>  <H298_kJmol>  (1) 
-925210

$$$$

     RDKit          3D

 12 11  0  0  0  0  0  0  0  0999 V2000
   -0.3102   -0.4948    0.7345 C   0  0  0  0  0  0  0  0  0  1  0  0
    0.6594   -1.4529    0.0865 C   0  0  0  0  0  0  0  0  0  2  0  0
   -0.4296    0.8552    0.1805 C   0  0  0  0  0  0  0  0  0  3  0  0
    0.0378    1.2759   -0.9964 C   0  0  0  0  0  0  0  0  0  4  0  0
   -1.2824   -0.9669    0.5901 H   0  0  0  0  0  0  0  0  0  5  0  0
   -0.2460   -0.4912    1.8230 H   0  0  0  0  0  0  0  0  0  6  0  0
    0.4193   -1.6103   -0.9674 H   0  0  0  0  0  0  0  0  0  7  0  0
    0.6263   -2.4253    0.5795 H   0  0  0  0  0  0  0  0  0  8  0  0
    1.6865   -1.0806    0.1384 H   0  0  0  0  0  0  0  0  0  9  0  0
   -0.9915    1.5603    0.7884 H   0  0  0  0  0  0  0  0  0 10  0  0
   -0.1333    2.2891   -1.3358 H   0  0  0  0  0  0  0  0  0 11  0  0
    0.6121    0.6311   -1.6509 H   0  0  0  0  0  0  0  0  0 12  0  0
  1  5  1  0
  1  3  1  0
  1  6  1  0
  1  2  1  0
  2  9  1  0
  2  7  1  0
  2  8  1  0
  3  4  1  0
  3 10  1  0
  4 12  1  0
  4 11  1  0
M  END
>  <rmg_smiles>  (2) 
[CH2][CH]CC

>  <rmg_adjacency_list>  (2) 
1  C u0 p0 c0 {2,S} {3,S} {5,S} {6,S}
2  C u0 p0 c0 {1,S} {7,S} {8,S} {9,S}
3  C u0 p0 c0 {1,S} {4,S} {10,S}
4  C u0 p0 c0 {3,S} {11,S} {12,S}
5  H u0 p0 c0 {1,S}
6  H u0 p0 c0 {1,S}
7  H u0 p0 c0 {2,S}
8  H u0 p0 c0 {2,S}
9  H u0 p0 c0 {2,S}
10 H u0 p0 c0 {3,S}
11 H u0 p0 c0 {4,S}
12 H u0 p0 c0 {4,S}


>  <multiplicity>  (2) 
1

>  <reaction>  (2) 
rxn_582

>  <type>  (2) 
r2h

>  <role_mapnums>  (2) 
{"r2h_a": 1, "r2h_h": 5}

>  <role_mapidx>  (2) 
{"r2h_a": 0, "r2h_h": 4}

>  <ordered_mapped_smiles>  (2) 
[C:1]([C:2]([H:7])([H:8])[H:9])([CH:3]([CH:4]([H:11])[H:12])[H:10])([H:5])[H:6]

>  <mol_properties>  (2) 
{"0": {"label": "acceptor", "atom_type": "Cs"}, "4": {"label": "a_hydrogen", "atom_type": "H0"}}

>  <level_of_theory>  (2) 
wb97xd/def2tzvp

>  <lot_method>  (2) 
wb97xd

>  <lot_basis>  (2) 
def2tzvp

>  <spin_multiplicity>  (2) 
1.0

>  <optical_isomers>  (2) 
1.0

>  <modes>  (2) 
IdealGasTranslation(mass=(56.0626, 'amu')),         NonlinearRotor(             inertia = ([32.5109, 90.3514, 116.676

>  <frequency_value>  (2) 
unknown

>  <frequency_units>  (2) 
unknown

>  <frequency_list>  (2) 
unknown

>  <arkane_path>  (2) 
/home/calvin/Dropbox/PersonalFolders/Calvin/HAb_Converged/rxn_582/output/Species/rxn_582_C=CCC/arkane/output.py

>  <path_exists>  (2) 
True

>  <E0_value>  (2) 
-412516.9632903335

>  <E0_units>  (2) 
kJ/mol

>  <thermo_class>  (2) 
NASA

>  <Cp0_value>  (2) 
33.257888

>  <Cp0_units>  (2) 
J/(mol*K)

>  <CpInf_value>  (2) 
282.692048

>  <CpInf_units>  (2) 
J/(mol*K)

>  <Tmin_value>  (2) 
10.0

>  <Tmin_units>  (2) 
K

>  <Tmax_value>  (2) 
3000.0

>  <Tmax_units>  (2) 
K

>  <polynomials>  (2) 
[{"name": "polynomial1", "class": "NASAPolynomial", "Tmin_value": 10.0, "Tmin_units": "K", "Tmax_value": 488.655875950425, "Tmax_units": "K", "coeffs": [3.9518334489867755, 0.002738214948316711, 0.00010027883330171994, -1.6337813639818567e-07, 8.627420085348335e-11, -49614327.71326204, 8.65572399544736]}, {"name": "polynomial2", "class": "NASAPolynomial", "Tmin_value": 488.655875950425, "Tmin_units": "K", "Tmax_value": 3000.0, "Tmax_units": "K", "coeffs": [-1.0177998638327943, 0.04340046679206265, -2.4485281954071822e-05, 6.761443222838627e-09, -7.324004262046576e-13, -49613841.81296031, 29.07476490076061]}]

>  <H298_value>  (2) 
-98590.13440490302

>  <H298_units>  (2) 
kcal/mol

>  <S298_value>  (2) 
69.88440789589453

>  <S298_units>  (2) 
cal/(mol*K)

>  <Cp_T_value_list>  (2) 
[20.042973263550383, 25.523981497089775, 30.524522062075274, 34.9218382998611, 42.11657803113529, 47.54675281077259, 55.846682187635814, 60.04373230790421, 62.15783038221664]

>  <Cp_T_units>  (2) 
cal/(mol*K)

>  <T_list>  (2) 
[300.0, 400.0, 500.0, 600.0, 800.0, 1000.0, 1500.0, 2000.0, 2400.0]

>  <T_units>  (2) 
K

>  <yaml_path>  (2) 
/home/calvin/Dropbox/PersonalFolders/Calvin/HAb_Converged/rxn_582/output/Species/rxn_582_C=CCC/rxn_582_C=CCC.yml

>  <frequencies_cm1>  (2) 
[165.89949834588, 270.68969432907994, 288.28291071892, 546.5845635307201, 562.94858954828, 802.8192537611999, 842.75764038232, 950.1229558605198, 1001.7077495843599, 1030.7756984439197, 1035.6375240504801, 1103.34599930568, 1142.2200032022, 1284.9434260930798, 1326.2895447048, 1372.0442678919599, 1403.3508539658399, 1441.4282875652402, 1464.212944857, 1485.72034287924, 1496.3092342426798, 1714.90597793424, 3000.2545561612, 3017.2984137254402, 3025.2847176525997, 3087.5545405343596, 3095.4996425496, 3112.8387804825998, 3128.2208275993994, 3206.66926789508]

>  <ZPE_kJmol>  (2) 
283.55462469418285

>  <E_elec_kJmol>  (2) 
-412800.5179150276

>  <E0_minus_Eelec_plus_ZPE_kJmol>  (2) 
0.0

>  <rxn>  (2) 
rxn_582

>  <species_type>  (2) 
p0

>  <species_folder>  (2) 
rxn_582_C=CCC

>  <frequencies_cm1_list>  (2) 
[165.89949834588, 270.68969432907994, 288.28291071892, 546.5845635307201, 562.94858954828, 802.8192537611999, 842.75764038232, 950.1229558605198, 1001.7077495843599, 1030.7756984439197, 1035.6375240504801, 1103.34599930568, 1142.2200032022, 1284.9434260930798, 1326.2895447048, 1372.0442678919599, 1403.3508539658399, 1441.4282875652402, 1464.212944857, 1485.72034287924, 1496.3092342426798, 1714.90597793424, 3000.2545561612, 3017.2984137254402, 3025.2847176525997, 3087.5545405343596, 3095.4996425496, 3112.8387804825998, 3128.2208275993994, 3206.66926789508]

>  <E0_kJmol>  (2) 
-412517

>  <H298_kJmol>  (2) 
-412501

$$$$

     RDKit          3D

 36 36  0  0  0  0  0  0  0  0999 V2000
   -1.3342    0.3198   -0.5204 C   0  0  0  0  0  0  0  0  0  1  0  0
   -1.0334   -0.7853    0.4940 C   0  0  0  0  0  0  0  0  0  2  0  0
   -2.5998    1.0728   -0.1548 C   0  0  0  0  0  0  0  0  0  3  0  0
   -1.2621   -0.4208   -1.8505 C   0  0  0  0  0  0  0  0  0  4  0  0
   -0.8489   -0.2204    1.8941 C   0  0  0  0  0  0  0  0  0  5  0  0
   -2.4663    1.6400    1.2621 C   0  0  0  0  0  0  0  0  0  6  0  0
   -2.1006    0.5671    2.2912 C   0  0  0  0  0  0  0  0  0  7  0  0
   -0.0590   -1.3721   -1.6693 C   0  0  0  0  0  0  0  0  0  8  0  0
    2.4223   -0.2814    0.3406 C   0  0  0  0  0  0  0  0  0  9  0  0
    3.3920   -1.2395   -0.3074 C   0  0  0  0  0  0  0  0  0 10  0  0
    0.0908   -1.5454   -0.1633 C   0  0  0  0  0  3  0  0  0 11  0  0
    2.3029    1.0686   -0.2134 C   0  0  0  0  0  0  0  0  0 12  0  0
    2.7703    1.4894   -1.3903 C   0  0  0  0  0  0  0  0  0 13  0  0
   -0.4946    1.0269   -0.4871 H   0  0  0  0  0  0  0  0  0 14  0  0
   -1.9171   -1.4458    0.5224 H   0  0  0  0  0  0  0  0  0 15  0  0
   -1.1473    0.2442   -2.7072 H   0  0  0  0  0  0  0  0  0 16  0  0
   -2.1820   -0.9952   -1.9985 H   0  0  0  0  0  0  0  0  0 17  0  0
   -2.7984    1.8783   -0.8665 H   0  0  0  0  0  0  0  0  0 18  0  0
   -3.4551    0.3882   -0.2011 H   0  0  0  0  0  0  0  0  0 19  0  0
   -1.6864    2.4098    1.2589 H   0  0  0  0  0  0  0  0  0 20  0  0
   -3.3924    2.1371    1.5596 H   0  0  0  0  0  0  0  0  0 21  0  0
   -1.9614    1.0277    3.2719 H   0  0  0  0  0  0  0  0  0 22  0  0
   -2.9388   -0.1314    2.3906 H   0  0  0  0  0  0  0  0  0 23  0  0
   -0.6537   -1.0156    2.6183 H   0  0  0  0  0  0  0  0  0 24  0  0
    0.0234    0.4420    1.9051 H   0  0  0  0  0  0  0  0  0 25  0  0
    1.2666   -0.8426    0.1689 H   0  0  0  0  0  0  0  0  0 26  0  0
    2.4865   -0.2778    1.4291 H   0  0  0  0  0  0  0  0  0 27  0  0
    0.8429   -0.9189   -2.0942 H   0  0  0  0  0  0  0  0  0 28  0  0
   -0.2008   -2.3244   -2.1842 H   0  0  0  0  0  0  0  0  0 29  0  0
    3.1518   -1.3969   -1.3613 H   0  0  0  0  0  0  0  0  0 30  0  0
    3.3588   -2.2119    0.1856 H   0  0  0  0  0  0  0  0  0 31  0  0
    4.4190   -0.8672   -0.2555 H   0  0  0  0  0  0  0  0  0 32  0  0
    0.3203   -2.5400    0.2130 H   0  0  0  0  0  0  0  0  0 33  0  0
    1.7411    1.7738    0.3945 H   0  0  0  0  0  0  0  0  0 34  0  0
    2.5992    2.5026   -1.7297 H   0  0  0  0  0  0  0  0  0 35  0  0
    3.3447    0.8445   -2.0448 H   0  0  0  0  0  0  0  0  0 36  0  0
  1  3  1  0
  1  4  1  0
  1 14  1  0
  1  2  1  0
  2 15  1  0
  2 11  1  0
  2  5  1  0
  3 19  1  0
  3 18  1  0
  3  6  1  0
  4 17  1  0
  4  8  1  0
  4 16  1  0
  5  7  1  0
  5 24  1  0
  5 25  1  0
  6  7  1  0
  6 20  1  0
  6 21  1  0
  7 23  1  0
  7 22  1  0
  8 29  1  0
  8 11  1  0
  8 28  1  0
  9 12  1  0
  9 26  1  0
  9 27  1  0
  9 10  1  0
 10 32  1  0
 10 30  1  0
 10 31  1  0
 11 33  1  0
 12 34  1  0
 12 13  1  0
 13 35  1  0
 13 36  1  0
M  RAD  1  11   2
M  END
>  <rmg_smiles>  (3) 
[CH2][CH]CC.[CH]1CCC2CCCCC12

>  <rmg_adjacency_list>  (3) 
multiplicity 2
1  C u0 p0 c0 {2,S} {3,S} {4,S} {14,S}
2  C u0 p0 c0 {1,S} {5,S} {11,S} {15,S}
3  C u0 p0 c0 {1,S} {6,S} {18,S} {19,S}
4  C u0 p0 c0 {1,S} {8,S} {16,S} {17,S}
5  C u0 p0 c0 {2,S} {7,S} {24,S} {25,S}
6  C u0 p0 c0 {3,S} {7,S} {20,S} {21,S}
7  C u0 p0 c0 {5,S} {6,S} {22,S} {23,S}
8  C u0 p0 c0 {4,S} {11,S} {28,S} {29,S}
9  C u0 p0 c0 {10,S} {12,S} {26,S} {27,S}
10 C u0 p0 c0 {9,S} {30,S} {31,S} {32,S}
11 C u1 p0 c0 {2,S} {8,S} {33,S}
12 C u0 p0 c0 {9,S} {13,S} {34,S}
13 C u0 p0 c0 {12,S} {35,S} {36,S}
14 H u0 p0 c0 {1,S}
15 H u0 p0 c0 {2,S}
16 H u0 p0 c0 {4,S}
17 H u0 p0 c0 {4,S}
18 H u0 p0 c0 {3,S}
19 H u0 p0 c0 {3,S}
20 H u0 p0 c0 {6,S}
21 H u0 p0 c0 {6,S}
22 H u0 p0 c0 {7,S}
23 H u0 p0 c0 {7,S}
24 H u0 p0 c0 {5,S}
25 H u0 p0 c0 {5,S}
26 H u0 p0 c0 {9,S}
27 H u0 p0 c0 {9,S}
28 H u0 p0 c0 {8,S}
29 H u0 p0 c0 {8,S}
30 H u0 p0 c0 {10,S}
31 H u0 p0 c0 {10,S}
32 H u0 p0 c0 {10,S}
33 H u0 p0 c0 {11,S}
34 H u0 p0 c0 {12,S}
35 H u0 p0 c0 {13,S}
36 H u0 p0 c0 {13,S}


>  <multiplicity>  (3) 
2

>  <reaction>  (3) 
rxn_582

>  <type>  (3) 
ts

>  <role_mapnums>  (3) 
{"*2": 26, "*1": 9, "*3": 11, "*0": 12, "*4": 2}

>  <role_mapidx>  (3) 
{"*2": 25, "*1": 8, "*3": 10, "*0": 11, "*4": 1}

>  <ordered_mapped_smiles>  (3) 
[C:1]12([H:14])[C:2]([H:15])([C:5]([H:24])([H:25])[C:7]([H:22])([H:23])[C:6]([H:20])([H:21])[C:3]1([H:18])[H:19])[C:11]([H:33])[C:8]([H:28])([H:29])[C:4]2([H:16])[H:17].[C:9]([C:10]([H:30])([H:31])[H:32])([CH:12]([CH:13]([H:35])[H:36])[H:34])([H:26])[H:27]

>  <mol_properties>  (3) 
{"1": {"label": "*4", "atom_type": "Cs"}, "8": {"label": "*1", "atom_type": "Cs"}, "10": {"label": "*3", "atom_type": "Cs"}, "11": {"label": "*0", "atom_type": "Cs"}, "25": {"label": "*2", "atom_type": "H0"}}

>  <level_of_theory>  (3) 
wb97xd/def2tzvp

>  <lot_method>  (3) 
wb97xd

>  <lot_basis>  (3) 
def2tzvp

>  <spin_multiplicity>  (3) 
2.0

>  <optical_isomers>  (3) 
2.0

>  <modes>  (3) 
IdealGasTranslation(mass=(179.18, 'amu')),         NonlinearRotor(             inertia = ([457.315, 1024.03, 1084.76

>  <frequency_value>  (3) 
-1684.17

>  <frequency_units>  (3) 
cm^-1

>  <frequency_list>  (3) 
unknown

>  <arkane_path>  (3) 
/home/calvin/Dropbox/PersonalFolders/Calvin/HAb_Converged/rxn_582/output/rxns/TS0/arkane/output.py

>  <path_exists>  (3) 
True

>  <E0_value>  (3) 
-1336000.0

>  <E0_units>  (3) 
kJ/mol

>  <thermo_class>  (3) 
unknown

>  <Cp0_value>  (3) 
unknown

>  <Cp0_units>  (3) 
unknown

>  <CpInf_value>  (3) 
unknown

>  <CpInf_units>  (3) 
unknown

>  <Tmin_value>  (3) 
unknown

>  <Tmin_units>  (3) 
unknown

>  <Tmax_value>  (3) 
unknown

>  <Tmax_units>  (3) 
unknown

>  <polynomials>  (3) 
unknown

>  <H298_value>  (3) 
unknown

>  <H298_units>  (3) 
unknown

>  <S298_value>  (3) 
unknown

>  <S298_units>  (3) 
unknown

>  <Cp_T_value_list>  (3) 
unknown

>  <Cp_T_units>  (3) 
unknown

>  <T_list>  (3) 
unknown

>  <T_units>  (3) 
unknown

>  <yaml_path>  (3) 
unknown

>  <frequencies_cm1>  (3) 
unknown

>  <ZPE_kJmol>  (3) 
unknown

>  <E_elec_kJmol>  (3) 
unknown

>  <E0_minus_Eelec_plus_ZPE_kJmol>  (3) 
unknown

>  <rxn>  (3) 
unknown

>  <species_type>  (3) 
unknown

>  <species_folder>  (3) 
unknown

>  <frequencies_cm1_list>  (3) 
[]

>  <ts_imag_freq_cm1>  (3) 
-1704.6291

>  <ts_freq_out_path>  (3) 
/home/calvin/Dropbox/PersonalFolders/Calvin/HAb_Converged/rxn_582/output/rxns/TS0/geometry/freq.out

>  <E0_kJmol>  (3) 
-1.336e+06

>  <H298_kJmol>  (3) 
unknown

$$$$

     RDKit          3D

 24 25  0  0  0  0  0  0  0  0999 V2000
   -1.3137    1.2076    0.0526 C   0  0  0  0  0  3  0  0  0  1  0  0
   -2.3065    0.1196    0.2833 C   0  0  0  0  0  0  0  0  0  2  0  0
   -1.7836   -1.0394   -0.5898 C   0  0  0  0  0  0  0  0  0  3  0  0
   -0.2749   -0.7855   -0.6984 C   0  0  0  0  0  0  0  0  0  4  0  0
    0.4655   -1.2917    0.5434 C   0  0  0  0  0  0  0  0  0  5  0  0
    1.8694   -0.7131    0.6745 C   0  0  0  0  0  0  0  0  0  6  0  0
    1.8184    0.8105    0.7119 C   0  0  0  0  0  0  0  0  0  7  0  0
    1.1779    1.3572   -0.5588 C   0  0  0  0  0  0  0  0  0  8  0  0
   -0.2011    0.7528   -0.8316 C   0  0  0  0  0  0  0  0  0  9  0  0
   -1.4277    2.2231    0.4082 H   0  0  0  0  0  0  0  0  0 10  0  0
   -2.3438   -0.1691    1.3425 H   0  0  0  0  0  0  0  0  0 11  0  0
   -3.3295    0.4088    0.0212 H   0  0  0  0  0  0  0  0  0 12  0  0
   -2.2393   -0.9859   -1.5815 H   0  0  0  0  0  0  0  0  0 13  0  0
   -2.0144   -2.0220   -0.1744 H   0  0  0  0  0  0  0  0  0 14  0  0
    0.1520   -1.2674   -1.5825 H   0  0  0  0  0  0  0  0  0 15  0  0
   -0.1033   -1.0202    1.4396 H   0  0  0  0  0  0  0  0  0 16  0  0
    0.4983   -2.3841    0.5177 H   0  0  0  0  0  0  0  0  0 17  0  0
    2.4827   -1.0338   -0.1757 H   0  0  0  0  0  0  0  0  0 18  0  0
    2.3514   -1.1019    1.5744 H   0  0  0  0  0  0  0  0  0 19  0  0
    1.2359    1.1286    1.5834 H   0  0  0  0  0  0  0  0  0 20  0  0
    2.8216    1.2258    0.8314 H   0  0  0  0  0  0  0  0  0 21  0  0
    1.0952    2.4462   -0.5109 H   0  0  0  0  0  0  0  0  0 22  0  0
    1.8331    1.1314   -1.4069 H   0  0  0  0  0  0  0  0  0 23  0  0
   -0.4636    1.0027   -1.8738 H   0  0  0  0  0  0  0  0  0 24  0  0
  1 10  1  0
  1  9  1  0
  1  2  1  0
  2 12  1  0
  2 11  1  0
  2  3  1  0
  3  4  1  0
  3 13  1  0
  3 14  1  0
  4  9  1  0
  4  5  1  0
  4 15  1  0
  5 16  1  0
  5 17  1  0
  5  6  1  0
  6  7  1  0
  6 19  1  0
  6 18  1  0
  7 20  1  0
  7 21  1  0
  7  8  1  0
  8 23  1  0
  8  9  1  0
  8 22  1  0
  9 24  1  0
M  RAD  1   1   2
M  END
>  <rmg_smiles>  (4) 
[CH]1CCC2CCCCC12

>  <rmg_adjacency_list>  (4) 
multiplicity 2
1  C u0 p0 c0 {2,S} {3,S} {4,S} {10,S}
2  C u0 p0 c0 {1,S} {5,S} {9,S} {11,S}
3  C u0 p0 c0 {1,S} {6,S} {14,S} {15,S}
4  C u0 p0 c0 {1,S} {8,S} {12,S} {13,S}
5  C u0 p0 c0 {2,S} {7,S} {20,S} {21,S}
6  C u0 p0 c0 {3,S} {7,S} {16,S} {17,S}
7  C u0 p0 c0 {5,S} {6,S} {18,S} {19,S}
8  C u0 p0 c0 {4,S} {9,S} {22,S} {23,S}
9  C u1 p0 c0 {2,S} {8,S} {24,S}
10 H u0 p0 c0 {1,S}
11 H u0 p0 c0 {2,S}
12 H u0 p0 c0 {4,S}
13 H u0 p0 c0 {4,S}
14 H u0 p0 c0 {3,S}
15 H u0 p0 c0 {3,S}
16 H u0 p0 c0 {6,S}
17 H u0 p0 c0 {6,S}
18 H u0 p0 c0 {7,S}
19 H u0 p0 c0 {7,S}
20 H u0 p0 c0 {5,S}
21 H u0 p0 c0 {5,S}
22 H u0 p0 c0 {8,S}
23 H u0 p0 c0 {8,S}
24 H u0 p0 c0 {9,S}


>  <multiplicity>  (4) 
2

>  <reaction>  (4) 
rxn_582

>  <type>  (4) 
r1

>  <role_mapnums>  (4) 
{}

>  <role_mapidx>  (4) 
{}

>  <ordered_mapped_smiles>  (4) 
[C:1]1([H:10])[C:2]([H:11])([H:12])[C:3]([H:13])([H:14])[C:4]2([H:15])[C:5]([H:16])([H:17])[C:6]([H:18])([H:19])[C:7]([H:20])([H:21])[C:8]([H:22])([H:23])[C:9]12[H:24]

>  <level_of_theory>  (4) 
wb97xd/def2tzvp

>  <lot_method>  (4) 
wb97xd

>  <lot_basis>  (4) 
def2tzvp

>  <spin_multiplicity>  (4) 
2.0

>  <optical_isomers>  (4) 
2.0

>  <modes>  (4) 
IdealGasTranslation(mass=(123.117, 'amu')),         NonlinearRotor(             inertia = ([183.116, 337.78, 420.862

>  <frequency_value>  (4) 
unknown

>  <frequency_units>  (4) 
unknown

>  <frequency_list>  (4) 
unknown

>  <arkane_path>  (4) 
/home/calvin/Dropbox/PersonalFolders/Calvin/HAb_Converged/rxn_582/output/Species/rxn_582_[CH]1CCC2CCCCC12/arkane/output.py

>  <path_exists>  (4) 
True

>  <E0_value>  (4) 
-923521.4034742753

>  <E0_units>  (4) 
kJ/mol

>  <thermo_class>  (4) 
NASA

>  <Cp0_value>  (4) 
33.257888

>  <Cp0_units>  (4) 
J/(mol*K)

>  <CpInf_value>  (4) 
582.01304

>  <CpInf_units>  (4) 
J/(mol*K)

>  <Tmin_value>  (4) 
10.0

>  <Tmin_units>  (4) 
K

>  <Tmax_value>  (4) 
3000.0

>  <Tmax_units>  (4) 
K

>  <polynomials>  (4) 
[{"name": "polynomial1", "class": "NASAPolynomial", "Tmin_value": 10.0, "Tmin_units": "K", "Tmax_value": 528.972455779128, "Tmax_units": "K", "coeffs": [3.9868218800267257, -0.0002706572745000309, 0.00028187632893371514, -4.741050184034835e-07, 2.5734956335824994e-10, -111073965.68706591, 13.539897637614564]}, {"name": "polynomial2", "class": "NASAPolynomial", "Tmin_value": 528.972455779128, "Tmin_units": "K", "Tmax_value": 3000.0, "Tmax_units": "K", "coeffs": [-8.057241794330608, 0.1064450955450352, -6.508787704379979e-05, 1.907252295638734e-08, -2.1508745349439294e-12, -111072910.31254905, 61.90729537273606]}]

>  <H298_value>  (4) 
-220721.245578044

>  <H298_units>  (4) 
kcal/mol

>  <S298_value>  (4) 
89.45134221739195

>  <S298_units>  (4) 
cal/(mol*K)

>  <Cp_T_value_list>  (4) 
[36.878956346585845, 50.12569271862853, 61.88517923543043, 71.97481392014562, 88.08635981771188, 99.80073994362994, 116.53702427589523, 124.49378200225445, 128.77598528640422]

>  <Cp_T_units>  (4) 
cal/(mol*K)

>  <T_list>  (4) 
[300.0, 400.0, 500.0, 600.0, 800.0, 1000.0, 1500.0, 2000.0, 2400.0]

>  <T_units>  (4) 
K

>  <yaml_path>  (4) 
/home/calvin/Dropbox/PersonalFolders/Calvin/HAb_Converged/rxn_582/output/Species/rxn_582_[CH]1CCC2CCCCC12/rxn_582_CH1CCC2CCCCC12.yml

>  <frequencies_cm1>  (4) 
[136.62553992672, 157.51490927016, 211.37954212023996, 286.18848019632, 322.06847849332, 355.62056876684, 367.5897241795999, 411.11954412308, 476.10869319156, 586.10406404732, 659.1619208667998, 679.4263945461199, 776.27148851408, 816.29914594436, 831.37217872176, 862.80923751672, 874.6891221203199, 908.0695377608398, 920.8901993532799, 936.1829756609199, 978.41493537892, 1007.2974756348399, 1019.2666310475998, 1048.87020476212, 1054.7002752987999, 1059.7475095089999, 1090.01031381424, 1111.6207166162799, 1132.16673669372, 1153.45439118572, 1197.1009498796398, 1215.60747531704, 1249.276304341, 1269.96653111016, 1285.0532978581998, 1290.7322947178397, 1302.2482290994799, 1317.86375371716, 1334.75653760436, 1341.808931528, 1361.1738301304, 1369.2082029548, 1377.33871357368, 1391.0452162724, 1392.73449466112, 1461.8919038188399, 1471.2378708393599, 1474.8361711470397, 1479.64992785636, 1487.40275428264, 1490.6165034123997, 2897.1467715814, 2960.3367704960397, 2992.7077392945193, 2999.801335130079, 3001.73782499032, 3002.8296756562, 3006.4005080225998, 3019.7155925580796, 3032.0555651781197, 3045.94747648048, 3049.81358921564, 3053.18527900776, 3057.6694204217197, 3072.8935268761597, 3173.233916372]

>  <ZPE_kJmol>  (4) 
575.1531238351159

>  <E_elec_kJmol>  (4) 
-924096.5565981104

>  <E0_minus_Eelec_plus_ZPE_kJmol>  (4) 
0.0

>  <rxn>  (4) 
rxn_582

>  <species_type>  (4) 
p1

>  <species_folder>  (4) 
rxn_582_[CH]1CCC2CCCCC12

>  <frequencies_cm1_list>  (4) 
[136.62553992672, 157.51490927016, 211.37954212023996, 286.18848019632, 322.06847849332, 355.62056876684, 367.5897241795999, 411.11954412308, 476.10869319156, 586.10406404732, 659.1619208667998, 679.4263945461199, 776.27148851408, 816.29914594436, 831.37217872176, 862.80923751672, 874.6891221203199, 908.0695377608398, 920.8901993532799, 936.1829756609199, 978.41493537892, 1007.2974756348399, 1019.2666310475998, 1048.87020476212, 1054.7002752987999, 1059.7475095089999, 1090.01031381424, 1111.6207166162799, 1132.16673669372, 1153.45439118572, 1197.1009498796398, 1215.60747531704, 1249.276304341, 1269.96653111016, 1285.0532978581998, 1290.7322947178397, 1302.2482290994799, 1317.86375371716, 1334.75653760436, 1341.808931528, 1361.1738301304, 1369.2082029548, 1377.33871357368, 1391.0452162724, 1392.73449466112, 1461.8919038188399, 1471.2378708393599, 1474.8361711470397, 1479.64992785636, 1487.40275428264, 1490.6165034123997, 2897.1467715814, 2960.3367704960397, 2992.7077392945193, 2999.801335130079, 3001.73782499032, 3002.8296756562, 3006.4005080225998, 3019.7155925580796, 3032.0555651781197, 3045.94747648048, 3049.81358921564, 3053.18527900776, 3057.6694204217197, 3072.8935268761597, 3173.233916372]

>  <E0_kJmol>  (4) 
-923521

>  <H298_kJmol>  (4) 
-923498

$$$$

     RDKit          3D

 11 10  0  0  0  0  0  0  0  0999 V2000
    2.0591    0.2533   -0.1061 C   0  0  0  0  0  0  0  0  0  1  0  0
    0.8045   -0.3111   -0.1535 C   0  0  0  0  0  0  0  0  0  2  0  0
   -0.3816    0.3942   -0.1885 C   0  0  0  0  0  3  0  0  0  3  0  0
   -1.7316   -0.2294   -0.2396 C   0  0  0  0  0  0  0  0  0  4  0  0
    2.9505   -0.3576   -0.0805 H   0  0  0  0  0  0  0  0  0  5  0  0
    2.1872    1.3290   -0.0933 H   0  0  0  0  0  0  0  0  0  6  0  0
    0.7385   -1.3970   -0.1643 H   0  0  0  0  0  0  0  0  0  7  0  0
   -0.3340    1.4795   -0.1783 H   0  0  0  0  0  0  0  0  0  8  0  0
   -1.6704   -1.3186   -0.2461 H   0  0  0  0  0  0  0  0  0  9  0  0
   -2.3404    0.0713    0.6191 H   0  0  0  0  0  0  0  0  0 10  0  0
   -2.2805    0.0851   -1.1331 H   0  0  0  0  0  0  0  0  0 11  0  0
  1  5  1  0
  1  6  1  0
  1  2  1  0
  2  7  1  0
  2  3  1  0
  3  4  1  0
  3  8  1  0
  4  9  1  0
  4 10  1  0
  4 11  1  0
M  RAD  1   3   2
M  END
>  <rmg_smiles>  (5) 
[CH2][CH][CH]C

>  <rmg_adjacency_list>  (5) 
multiplicity 2
1  C u0 p0 c0 {2,S} {5,S} {6,S} {7,S}
2  C u1 p0 c0 {1,S} {3,S} {8,S}
3  C u0 p0 c0 {2,S} {4,S} {9,S}
4  C u0 p0 c0 {3,S} {10,S} {11,S}
5  H u0 p0 c0 {1,S}
6  H u0 p0 c0 {1,S}
7  H u0 p0 c0 {1,S}
8  H u0 p0 c0 {2,S}
9  H u0 p0 c0 {3,S}
10 H u0 p0 c0 {4,S}
11 H u0 p0 c0 {4,S}


>  <multiplicity>  (5) 
2

>  <reaction>  (5) 
rxn_582

>  <type>  (5) 
r2

>  <role_mapnums>  (5) 
{}

>  <role_mapidx>  (5) 
{}

>  <ordered_mapped_smiles>  (5) 
[CH:1]([CH:2]([C:3]([C:4]([H:9])([H:10])[H:11])[H:8])[H:7])([H:5])[H:6]

>  <level_of_theory>  (5) 
wb97xd/def2tzvp

>  <lot_method>  (5) 
wb97xd

>  <lot_basis>  (5) 
def2tzvp

>  <spin_multiplicity>  (5) 
2.0

>  <optical_isomers>  (5) 
1.0

>  <modes>  (5) 
IdealGasTranslation(mass=(55.0548, 'amu')),         NonlinearRotor(             inertia = ([13.1906, 125.273, 135.366

>  <frequency_value>  (5) 
unknown

>  <frequency_units>  (5) 
unknown

>  <frequency_list>  (5) 
unknown

>  <arkane_path>  (5) 
/home/calvin/Dropbox/PersonalFolders/Calvin/HAb_Converged/rxn_582/output/Species/rxn_582_C=C[CH]C/arkane/output.py

>  <path_exists>  (5) 
True

>  <E0_value>  (5) 
-410861.3152330692

>  <E0_units>  (5) 
kJ/mol

>  <thermo_class>  (5) 
NASA

>  <Cp0_value>  (5) 
33.257888

>  <Cp0_units>  (5) 
J/(mol*K)

>  <CpInf_value>  (5) 
257.748632

>  <CpInf_units>  (5) 
J/(mol*K)

>  <Tmin_value>  (5) 
10.0

>  <Tmin_units>  (5) 
K

>  <Tmax_value>  (5) 
3000.0

>  <Tmax_units>  (5) 
K

>  <polynomials>  (5) 
[{"name": "polynomial1", "class": "NASAPolynomial", "Tmin_value": 10.0, "Tmin_units": "K", "Tmax_value": 463.6393307218724, "Tmax_units": "K", "coeffs": [3.9040427866109826, 0.008185983411080414, 7.727991952880457e-05, -1.3744264793304484e-07, 7.688975074355223e-11, -49415200.70388584, 8.995587426851019]}, {"name": "polynomial2", "class": "NASAPolynomial", "Tmin_value": 463.6393307218724, "Tmin_units": "K", "Tmax_value": 3000.0, "Tmax_units": "K", "coeffs": [0.3179549217714686, 0.039124611253892716, -2.281509301051405e-05, 6.484032923156998e-09, -7.173482644836273e-13, -49414868.17391742, 23.539944648157388]}]

>  <H298_value>  (5) 
-98194.28584360852

>  <H298_units>  (5) 
kcal/mol

>  <S298_value>  (5) 
71.63337428638437

>  <S298_units>  (5) 
cal/(mol*K)

>  <Cp_T_value_list>  (5) 
[20.32293445175687, 25.26787004109902, 29.6931518167585, 33.55769976572619, 39.8275597158211, 44.50181601093726, 51.51425090015371, 55.048594012523054, 56.90855371865896]

>  <Cp_T_units>  (5) 
cal/(mol*K)

>  <T_list>  (5) 
[300.0, 400.0, 500.0, 600.0, 800.0, 1000.0, 1500.0, 2000.0, 2400.0]

>  <T_units>  (5) 
K

>  <yaml_path>  (5) 
/home/calvin/Dropbox/PersonalFolders/Calvin/HAb_Converged/rxn_582/output/Species/rxn_582_C=C[CH]C/rxn_582_C=CCHC.yml

>  <frequencies_cm1>  (5) 
[145.86850216744, 217.17527773031998, 290.56274984515994, 508.82301125604, 544.53820190536, 739.89020028872, 798.30764440596, 881.33636391008, 988.4682018873999, 989.4158458615598, 1023.15334473872, 1138.3744914229999, 1188.9155033782, 1281.84641571376, 1335.3196304005999, 1400.47358711676, 1459.61893167792, 1463.37517264796, 1502.4895210306797, 1514.45180945812, 2991.0802637736797, 3039.3139686613595, 3086.1330745731198, 3108.55378164292, 3124.5401234678798, 3127.2937845812003, 3223.3011063401195]

>  <ZPE_kJmol>  (5) 
245.90815043438468

>  <E_elec_kJmol>  (5) 
-411107.2233835036

>  <E0_minus_Eelec_plus_ZPE_kJmol>  (5) 
0.0

>  <rxn>  (5) 
rxn_582

>  <species_type>  (5) 
r0

>  <species_folder>  (5) 
rxn_582_C=C[CH]C

>  <frequencies_cm1_list>  (5) 
[145.86850216744, 217.17527773031998, 290.56274984515994, 508.82301125604, 544.53820190536, 739.89020028872, 798.30764440596, 881.33636391008, 988.4682018873999, 989.4158458615598, 1023.15334473872, 1138.3744914229999, 1188.9155033782, 1281.84641571376, 1335.3196304005999, 1400.47358711676, 1459.61893167792, 1463.37517264796, 1502.4895210306797, 1514.45180945812, 2991.0802637736797, 3039.3139686613595, 3086.1330745731198, 3108.55378164292, 3124.5401234678798, 3127.2937845812003, 3223.3011063401195]

>  <E0_kJmol>  (5) 
-410861

>  <H298_kJmol>  (5) 
-410845

$$$$
