
     RDKit          3D

 12 11  0  0  0  0  0  0  0  0999 V2000
   -0.2218    0.0683   -1.4108 C   0  0  0  0  0  0  0  0  0  1  0  0
    0.0102    0.0097   -0.0983 C   0  0  0  0  0  0  0  0  0  2  0  0
    0.1690    1.2198    0.7236 C   0  0  0  0  0  0  0  0  0  3  0  0
    0.0556   -1.2945    0.6450 C   0  0  0  0  0  0  0  0  0  4  0  0
   -0.2597    1.0160   -1.9347 H   0  0  0  0  0  0  0  0  0  5  0  0
   -0.3725   -0.8284   -1.9995 H   0  0  0  0  0  0  0  0  0  6  0  0
   -0.7582    1.3505    1.2794 H   0  0  0  0  0  0  0  0  0  7  0  0
    0.9090    1.1345    1.5190 H   0  0  0  0  0  0  0  0  0  8  0  0
    0.2814    2.1445    0.1617 H   0  0  0  0  0  0  0  0  0  9  0  0
    1.0207   -1.4222    1.1424 H   0  0  0  0  0  0  0  0  0 10  0  0
   -0.7094   -1.3120    1.4268 H   0  0  0  0  0  0  0  0  0 11  0  0
   -0.1076   -2.1447   -0.0164 H   0  0  0  0  0  0  0  0  0 12  0  0
  1  5  1  0
  1  6  1  0
  1  2  1  0
  2  3  1  0
  2  4  1  0
  3  7  1  0
  3  9  1  0
  3  8  1  0
  4 12  1  0
  4 10  1  0
  4 11  1  0
M  END
>  <rmg_smiles>  (1) 
[CH2]C(C)C

>  <rmg_adjacency_list>  (1) 
1  C u0 p0 c0 {3,S} {5,S} {6,S} {7,S}
2  C u0 p0 c0 {3,S} {8,S} {9,S} {10,S}
3  C u0 p0 c0 {1,S} {2,S} {4,S}
4  C u0 p0 c0 {3,S} {11,S} {12,S}
5  H u0 p0 c0 {1,S}
6  H u0 p0 c0 {1,S}
7  H u0 p0 c0 {1,S}
8  H u0 p0 c0 {2,S}
9  H u0 p0 c0 {2,S}
10 H u0 p0 c0 {2,S}
11 H u0 p0 c0 {4,S}
12 H u0 p0 c0 {4,S}


>  <multiplicity>  (1) 
1

>  <reaction>  (1) 
rxn_760

>  <type>  (1) 
r1h

>  <role_mapnums>  (1) 
{"r1h_a": 3, "r1h_h": 7}

>  <role_mapidx>  (1) 
{"r1h_a": 2, "r1h_h": 6}

>  <ordered_mapped_smiles>  (1) 
[CH:1]([CH:2]([C:3]([H:7])([H:8])[H:9])[C:4]([H:10])([H:11])[H:12])([H:5])[H:6]

>  <mol_properties>  (1) 
{"2": {"label": "donator", "atom_type": "Cs"}, "6": {"label": "d_hydrogen", "atom_type": "H0"}}

>  <level_of_theory>  (1) 
wb97xd/def2tzvp

>  <lot_method>  (1) 
wb97xd

>  <lot_basis>  (1) 
def2tzvp

>  <spin_multiplicity>  (1) 
1.0

>  <optical_isomers>  (1) 
1.0

>  <modes>  (1) 
IdealGasTranslation(mass=(56.0626, 'amu')),         NonlinearRotor(             inertia = ([54.8518, 59.7501, 108.39

>  <frequency_value>  (1) 
unknown

>  <frequency_units>  (1) 
unknown

>  <frequency_list>  (1) 
unknown

>  <arkane_path>  (1) 
/home/calvin/Dropbox/PersonalFolders/Calvin/HAb_Converged/rxn_760/output/Species/rxn_760_C=C[C]C/arkane/output.py

>  <path_exists>  (1) 
True

>  <E0_value>  (1) 
-412534.10297182825

>  <E0_units>  (1) 
kJ/mol

>  <thermo_class>  (1) 
NASA

>  <Cp0_value>  (1) 
33.257888

>  <Cp0_units>  (1) 
J/(mol*K)

>  <CpInf_value>  (1) 
282.692048

>  <CpInf_units>  (1) 
J/(mol*K)

>  <Tmin_value>  (1) 
10.0

>  <Tmin_units>  (1) 
K

>  <Tmax_value>  (1) 
3000.0

>  <Tmax_units>  (1) 
K

>  <polynomials>  (1) 
[{"name": "polynomial1", "class": "NASAPolynomial", "Tmin_value": 10.0, "Tmin_units": "K", "Tmax_value": 498.95038699364414, "Tmax_units": "K", "coeffs": [3.901727145998344, 0.007464022643265422, 8.140069101399911e-05, -1.34043578279297e-07, 6.97293044621997e-11, -49616389.46495108, 7.853222616117349]}, {"name": "polynomial2", "class": "NASAPolynomial", "Tmin_value": 498.95038699364414, "Tmin_units": "K", "Tmax_value": 3000.0, "Tmax_units": "K", "coeffs": [-0.46305569031982813, 0.04245581638085562, -2.3795747865523038e-05, 6.513704454155295e-09, -6.973300076201757e-13, -49615953.903874084, 25.876158086063345]}]

>  <H298_value>  (1) 
-98594.07566738632

>  <H298_units>  (1) 
kcal/mol

>  <S298_value>  (1) 
69.30463799070704

>  <S298_units>  (1) 
cal/(mol*K)

>  <Cp_T_value_list>  (1) 
[20.692039833610465, 26.067634259817133, 30.973684475535098, 35.29388260591572, 42.37063891481565, 47.719559295994536, 55.907581930700104, 60.049289040400026, 62.15407678364104]

>  <Cp_T_units>  (1) 
cal/(mol*K)

>  <T_list>  (1) 
[300.0, 400.0, 500.0, 600.0, 800.0, 1000.0, 1500.0, 2000.0, 2400.0]

>  <T_units>  (1) 
K

>  <yaml_path>  (1) 
/home/calvin/Dropbox/PersonalFolders/Calvin/HAb_Converged/rxn_760/output/Species/rxn_760_C=C[C]C/rxn_760_C=CCC.yml

>  <frequencies_cm1>  (1) 
[164.27888981035997, 208.61214703628, 383.62413490179995, 441.5128211494, 443.51798086284, 703.1586958120399, 819.4785601475199, 926.9743483468, 958.5968157454, 983.81238584044, 1013.07947727428, 1078.1853650931998, 1100.5786042217198, 1296.5623652545198, 1400.6040598378397, 1403.53626256948, 1434.8222476873998, 1457.25668872784, 1469.6378632598, 1476.3812428440397, 1489.7855981886796, 1728.3034662935597, 3000.4949006473994, 3004.42281625044, 3056.59130372648, 3058.7475371169594, 3099.70910455076, 3101.8172690439997, 3116.5675535113596, 3199.42459838248]

>  <ZPE_kJmol>  (1) 
281.2425858226165

>  <E_elec_kJmol>  (1) 
-412815.3455576509

>  <E0_minus_Eelec_plus_ZPE_kJmol>  (1) 
0.0

>  <rxn>  (1) 
rxn_760

>  <species_type>  (1) 
r1

>  <species_folder>  (1) 
rxn_760_C=C[C]C

>  <frequencies_cm1_list>  (1) 
[164.27888981035997, 208.61214703628, 383.62413490179995, 441.5128211494, 443.51798086284, 703.1586958120399, 819.4785601475199, 926.9743483468, 958.5968157454, 983.81238584044, 1013.07947727428, 1078.1853650931998, 1100.5786042217198, 1296.5623652545198, 1400.6040598378397, 1403.53626256948, 1434.8222476873998, 1457.25668872784, 1469.6378632598, 1476.3812428440397, 1489.7855981886796, 1728.3034662935597, 3000.4949006473994, 3004.42281625044, 3056.59130372648, 3058.7475371169594, 3099.70910455076, 3101.8172690439997, 3116.5675535113596, 3199.42459838248]

>  <E0_kJmol>  (1) 
-412534

>  <H298_kJmol>  (1) 
-412518

$$$$

     RDKit          3D

  5  4  0  0  0  0  0  0  0  0999 V2000
   -0.0357    0.0048    0.0211 C   0  0  0  0  0  0  0  0  0  1  0  0
   -0.7277   -0.5302   -0.6215 H   0  0  0  0  0  0  0  0  0  2  0  0
   -0.1890    1.0783    0.0555 H   0  0  0  0  0  0  0  0  0  3  0  0
    0.1342   -0.4568    0.9883 H   0  0  0  0  0  0  0  0  0  4  0  0
    0.9064   -0.1108   -0.5048 H   0  0  0  0  0  0  0  0  0  5  0  0
  1  3  1  0
  1  5  1  0
  1  4  1  0
  1  2  1  0
M  END
>  <rmg_smiles>  (2) 
C

>  <rmg_adjacency_list>  (2) 
1 C u0 p0 c0 {2,S} {3,S} {4,S} {5,S}
2 H u0 p0 c0 {1,S}
3 H u0 p0 c0 {1,S}
4 H u0 p0 c0 {1,S}
5 H u0 p0 c0 {1,S}


>  <multiplicity>  (2) 
1

>  <reaction>  (2) 
rxn_760

>  <type>  (2) 
r2h

>  <role_mapnums>  (2) 
{"r2h_a": 1, "r2h_h": 5}

>  <role_mapidx>  (2) 
{"r2h_a": 0, "r2h_h": 4}

>  <ordered_mapped_smiles>  (2) 
[C:1]([H:2])([H:3])([H:4])[H:5]

>  <mol_properties>  (2) 
{"0": {"label": "acceptor", "atom_type": "Cs"}, "4": {"label": "a_hydrogen", "atom_type": "H0"}}

>  <level_of_theory>  (2) 
wb97xd/def2tzvp

>  <lot_method>  (2) 
wb97xd

>  <lot_basis>  (2) 
def2tzvp

>  <spin_multiplicity>  (2) 
1.0

>  <optical_isomers>  (2) 
1.0

>  <modes>  (2) 
IdealGasTranslation(mass=(16.0313, 'amu')),         NonlinearRotor(             inertia = ([3.18679, 3.18679, 3.18679

>  <frequency_value>  (2) 
unknown

>  <frequency_units>  (2) 
unknown

>  <frequency_list>  (2) 
unknown

>  <arkane_path>  (2) 
/home/calvin/Dropbox/PersonalFolders/Calvin/HAb_Converged/rxn_760/output/Species/rxn_760_C/arkane/output.py

>  <path_exists>  (2) 
True

>  <E0_value>  (2) 
-106268.5262916272

>  <E0_units>  (2) 
kJ/mol

>  <thermo_class>  (2) 
NASA

>  <Cp0_value>  (2) 
33.257888

>  <Cp0_units>  (2) 
J/(mol*K)

>  <CpInf_value>  (2) 
108.088136

>  <CpInf_units>  (2) 
J/(mol*K)

>  <Tmin_value>  (2) 
10.0

>  <Tmin_units>  (2) 
K

>  <Tmax_value>  (2) 
3000.0

>  <Tmax_units>  (2) 
K

>  <polynomials>  (2) 
[{"name": "polynomial1", "class": "NASAPolynomial", "Tmin_value": 10.0, "Tmin_units": "K", "Tmax_value": 616.7595780986624, "Tmax_units": "K", "coeffs": [4.041420799946622, -0.002477807655966685, 1.1290457802459216e-05, 3.700688819348292e-09, -9.366412561864162e-12, -12781153.318458663, -0.42637433538586406]}, {"name": "polynomial2", "class": "NASAPolynomial", "Tmin_value": 616.7595780986624, "Tmin_units": "K", "Tmax_value": 3000.0, "Tmax_units": "K", "coeffs": [0.6800320423470843, 0.011684066325645743, -4.5749540261290126e-06, 7.694671628924811e-10, -3.8768177461555664e-14, -12780593.404419335, 15.343675764562182]}]

>  <H298_value>  (2) 
-25396.41264990868

>  <H298_units>  (2) 
kcal/mol

>  <S298_value>  (2) 
44.46392088520575

>  <S298_units>  (2) 
cal/(mol*K)

>  <Cp_T_value_list>  (2) 
[8.621039065772948, 9.645572285350525, 10.934239595808906, 12.330144838344452, 14.859142397339834, 16.9306880471269, 20.49440393107996, 22.423230884533538, 23.291918246513866]

>  <Cp_T_units>  (2) 
cal/(mol*K)

>  <T_list>  (2) 
[300.0, 400.0, 500.0, 600.0, 800.0, 1000.0, 1500.0, 2000.0, 2400.0]

>  <T_units>  (2) 
K

>  <yaml_path>  (2) 
/home/calvin/Dropbox/PersonalFolders/Calvin/HAb_Converged/rxn_760/output/Species/rxn_760_C/rxn_760_C.yml

>  <frequencies_cm1>  (2) 
[1326.5504901469599, 1326.5504901469599, 1326.5504901469599, 1542.24249904816, 1542.24249904816, 3008.8382878112, 3127.32125252248, 3127.32125252248, 3127.32125252248]

>  <ZPE_kJmol>  (2) 
116.36640738144024

>  <E_elec_kJmol>  (2) 
-106384.89269900863

>  <E0_minus_Eelec_plus_ZPE_kJmol>  (2) 
0.0

>  <rxn>  (2) 
rxn_760

>  <species_type>  (2) 
p0

>  <species_folder>  (2) 
rxn_760_C

>  <frequencies_cm1_list>  (2) 
[1326.5504901469599, 1326.5504901469599, 1326.5504901469599, 1542.24249904816, 1542.24249904816, 3008.8382878112, 3127.32125252248, 3127.32125252248, 3127.32125252248]

>  <E0_kJmol>  (2) 
-106269

>  <H298_kJmol>  (2) 
-106259

$$$$

     RDKit          3D

 16 14  0  0  0  0  0  0  0  0999 V2000
   -1.6802    1.2221    1.6386 C   0  0  0  0  0  3  0  0  0  1  0  0
   -2.3721    0.6872    0.9960 H   0  0  0  0  0  0  0  0  0  2  0  0
   -1.8334    2.2956    1.6730 H   0  0  0  0  0  0  0  0  0  3  0  0
   -1.5102    0.7605    2.6058 H   0  0  0  0  0  0  0  0  0  4  0  0
    0.2577   -0.2350   -1.8405 C   0  0  0  0  0  0  0  0  0  5  0  0
    0.4897   -0.2936   -0.5280 C   0  0  0  0  0  0  0  0  0  6  0  0
    0.6485    0.9165    0.2939 C   0  0  0  0  0  0  0  0  0  7  0  0
    0.5352   -1.5977    0.2153 C   0  0  0  0  0  0  0  0  0  8  0  0
    0.2198    0.7127   -2.3644 H   0  0  0  0  0  0  0  0  0  9  0  0
    0.1070   -1.1317   -2.4292 H   0  0  0  0  0  0  0  0  0 10  0  0
   -0.4364    1.0695    0.9443 H   0  0  0  0  0  0  0  0  0 11  0  0
    1.3885    0.8312    1.0893 H   0  0  0  0  0  0  0  0  0 12  0  0
    0.7609    1.8412   -0.2680 H   0  0  0  0  0  0  0  0  0 13  0  0
    1.5002   -1.7255    0.7127 H   0  0  0  0  0  0  0  0  0 14  0  0
   -0.2298   -1.6153    0.9971 H   0  0  0  0  0  0  0  0  0 15  0  0
    0.3720   -2.4480   -0.4461 H   0  0  0  0  0  0  0  0  0 16  0  0
  1  2  1  0
  1  4  1  0
  1  3  1  0
  5  6  1  0
  5  9  1  0
  5 10  1  0
  6  8  1  0
  6  7  1  0
  7 13  1  0
  7 12  1  0
  7 11  1  0
  8 16  1  0
  8 14  1  0
  8 15  1  0
M  RAD  1   1   2
M  END
>  <rmg_smiles>  (3) 
[CH2]C(C)C.[CH3]

>  <rmg_adjacency_list>  (3) 
multiplicity 2
1  C u0 p0 c0 {3,S} {6,S} {7,S} {8,S}
2  C u0 p0 c0 {3,S} {9,S} {10,S} {11,S}
3  C u0 p0 c0 {1,S} {2,S} {4,S}
4  C u0 p0 c0 {3,S} {12,S} {13,S}
5  C u1 p0 c0 {14,S} {15,S} {16,S}
6  H u0 p0 c0 {1,S}
7  H u0 p0 c0 {1,S}
8  H u0 p0 c0 {1,S}
9  H u0 p0 c0 {2,S}
10 H u0 p0 c0 {2,S}
11 H u0 p0 c0 {2,S}
12 H u0 p0 c0 {4,S}
13 H u0 p0 c0 {4,S}
14 H u0 p0 c0 {5,S}
15 H u0 p0 c0 {5,S}
16 H u0 p0 c0 {5,S}


>  <multiplicity>  (3) 
2

>  <reaction>  (3) 
rxn_760

>  <type>  (3) 
ts

>  <role_mapnums>  (3) 
{"*2": 11, "*1": 7, "*3": 1, "*0": 6, "*4": 2}

>  <role_mapidx>  (3) 
{"*2": 10, "*1": 6, "*3": 0, "*0": 5, "*4": 1}

>  <ordered_mapped_smiles>  (3) 
[C:1]([H:2])([H:3])[H:4].[CH:5]([CH:6]([C:7]([H:11])([H:12])[H:13])[C:8]([H:14])([H:15])[H:16])([H:9])[H:10]

>  <mol_properties>  (3) 
{"0": {"label": "*3", "atom_type": "Cs"}, "1": {"label": "*4", "atom_type": "H0"}, "5": {"label": "*0", "atom_type": "Cs"}, "6": {"label": "*1", "atom_type": "Cs"}, "10": {"label": "*2", "atom_type": "H0"}}

>  <level_of_theory>  (3) 
wb97xd/def2tzvp

>  <lot_method>  (3) 
wb97xd

>  <lot_basis>  (3) 
def2tzvp

>  <spin_multiplicity>  (3) 
2.0

>  <optical_isomers>  (3) 
2.0

>  <modes>  (3) 
IdealGasTranslation(mass=(71.0861, 'amu')),         NonlinearRotor(             inertia = ([83.9803, 195.836, 224.084

>  <frequency_value>  (3) 
-1642.54

>  <frequency_units>  (3) 
cm^-1

>  <frequency_list>  (3) 
unknown

>  <arkane_path>  (3) 
/home/calvin/Dropbox/PersonalFolders/Calvin/HAb_Converged/rxn_760/output/rxns/TS0/arkane/output.py

>  <path_exists>  (3) 
True

>  <E0_value>  (3) 
-517013.0

>  <E0_units>  (3) 
kJ/mol

>  <thermo_class>  (3) 
unknown

>  <Cp0_value>  (3) 
unknown

>  <Cp0_units>  (3) 
unknown

>  <CpInf_value>  (3) 
unknown

>  <CpInf_units>  (3) 
unknown

>  <Tmin_value>  (3) 
unknown

>  <Tmin_units>  (3) 
unknown

>  <Tmax_value>  (3) 
unknown

>  <Tmax_units>  (3) 
unknown

>  <polynomials>  (3) 
unknown

>  <H298_value>  (3) 
unknown

>  <H298_units>  (3) 
unknown

>  <S298_value>  (3) 
unknown

>  <S298_units>  (3) 
unknown

>  <Cp_T_value_list>  (3) 
unknown

>  <Cp_T_units>  (3) 
unknown

>  <T_list>  (3) 
unknown

>  <T_units>  (3) 
unknown

>  <yaml_path>  (3) 
unknown

>  <frequencies_cm1>  (3) 
unknown

>  <ZPE_kJmol>  (3) 
unknown

>  <E_elec_kJmol>  (3) 
unknown

>  <E0_minus_Eelec_plus_ZPE_kJmol>  (3) 
unknown

>  <rxn>  (3) 
unknown

>  <species_type>  (3) 
unknown

>  <species_folder>  (3) 
unknown

>  <frequencies_cm1_list>  (3) 
[]

>  <ts_imag_freq_cm1>  (3) 
-1662.4861

>  <ts_freq_out_path>  (3) 
/home/calvin/Dropbox/PersonalFolders/Calvin/HAb_Converged/rxn_760/output/rxns/TS0/geometry/freq.out

>  <E0_kJmol>  (3) 
-517013

>  <H298_kJmol>  (3) 
unknown

$$$$

     RDKit          3D

 11 10  0  0  0  0  0  0  0  0999 V2000
    1.4192   -0.3322   -0.2373 C   0  0  0  0  0  0  0  0  0  1  0  0
    0.1353    0.1259    0.0104 C   0  0  0  0  0  0  0  0  0  2  0  0
   -0.0994    1.4387    0.3575 C   0  0  0  0  0  3  0  0  0  3  0  0
   -1.0184   -0.8432   -0.0948 C   0  0  0  0  0  0  0  0  0  4  0  0
    1.6064   -1.3616   -0.5143 H   0  0  0  0  0  0  0  0  0  5  0  0
    2.2713    0.3306   -0.1599 H   0  0  0  0  0  0  0  0  0  6  0  0
    0.7172    2.1438    0.4483 H   0  0  0  0  0  0  0  0  0  7  0  0
   -1.1000    1.8033    0.5485 H   0  0  0  0  0  0  0  0  0  8  0  0
   -0.9674   -1.5884    0.7016 H   0  0  0  0  0  0  0  0  0  9  0  0
   -1.9775   -0.3322   -0.0170 H   0  0  0  0  0  0  0  0  0 10  0  0
   -0.9929   -1.3773   -1.0460 H   0  0  0  0  0  0  0  0  0 11  0  0
  1  5  1  0
  1  6  1  0
  1  2  1  0
  2  3  1  0
  2  4  1  0
  3  7  1  0
  3  8  1  0
  4  9  1  0
  4 10  1  0
  4 11  1  0
M  RAD  1   3   2
M  END
>  <rmg_smiles>  (4) 
[CH2]C([CH2])C

>  <rmg_adjacency_list>  (4) 
multiplicity 2
1  C u0 p0 c0 {2,S} {5,S} {6,S} {7,S}
2  C u0 p0 c0 {1,S} {3,S} {4,S}
3  C u1 p0 c0 {2,S} {10,S} {11,S}
4  C u0 p0 c0 {2,S} {8,S} {9,S}
5  H u0 p0 c0 {1,S}
6  H u0 p0 c0 {1,S}
7  H u0 p0 c0 {1,S}
8  H u0 p0 c0 {4,S}
9  H u0 p0 c0 {4,S}
10 H u0 p0 c0 {3,S}
11 H u0 p0 c0 {3,S}


>  <multiplicity>  (4) 
2

>  <reaction>  (4) 
rxn_760

>  <type>  (4) 
r1

>  <role_mapnums>  (4) 
{}

>  <role_mapidx>  (4) 
{}

>  <ordered_mapped_smiles>  (4) 
[CH:1]([CH:2]([C:3]([H:7])[H:8])[C:4]([H:9])([H:10])[H:11])([H:5])[H:6]

>  <level_of_theory>  (4) 
wb97xd/def2tzvp

>  <lot_method>  (4) 
wb97xd

>  <lot_basis>  (4) 
def2tzvp

>  <spin_multiplicity>  (4) 
2.0

>  <optical_isomers>  (4) 
2.0

>  <modes>  (4) 
IdealGasTranslation(mass=(55.0548, 'amu')),         NonlinearRotor(             inertia = ([50.2749, 56.9544, 104.106

>  <frequency_value>  (4) 
unknown

>  <frequency_units>  (4) 
unknown

>  <frequency_list>  (4) 
unknown

>  <arkane_path>  (4) 
/home/calvin/Dropbox/PersonalFolders/Calvin/HAb_Converged/rxn_760/output/Species/rxn_760_[CH2]C[=C]C/arkane/output.py

>  <path_exists>  (4) 
True

>  <E0_value>  (4) 
-410855.1742538731

>  <E0_units>  (4) 
kJ/mol

>  <thermo_class>  (4) 
NASA

>  <Cp0_value>  (4) 
33.257888

>  <Cp0_units>  (4) 
J/(mol*K)

>  <CpInf_value>  (4) 
257.748632

>  <CpInf_units>  (4) 
J/(mol*K)

>  <Tmin_value>  (4) 
10.0

>  <Tmin_units>  (4) 
K

>  <Tmax_value>  (4) 
3000.0

>  <Tmax_units>  (4) 
K

>  <polynomials>  (4) 
[{"name": "polynomial1", "class": "NASAPolynomial", "Tmin_value": 10.0, "Tmin_units": "K", "Tmax_value": 469.9171617338171, "Tmax_units": "K", "coeffs": [3.954848087055848, 0.0028698437370469035, 0.00011677355932286431, -2.2520394435634604e-07, 1.40035632474133e-10, -49414462.3405727, 11.579855023844608]}, {"name": "polynomial2", "class": "NASAPolynomial", "Tmin_value": 469.9171617338171, "Tmin_units": "K", "Tmax_value": 3000.0, "Tmax_units": "K", "coeffs": [0.44090149626682407, 0.0399224332834836, -2.4295917475179848e-05, 7.269883842073742e-09, -8.476206813743936e-13, -49414210.93665308, 25.039922305042946]}]

>  <H298_value>  (4) 
-98192.8501027358

>  <H298_units>  (4) 
kcal/mol

>  <S298_value>  (4) 
76.38961767970885

>  <S298_units>  (4) 
cal/(mol*K)

>  <Cp_T_value_list>  (4) 
[20.625621013030432, 25.7510461844404, 30.173540729778676, 33.9976741969935, 40.150426381011094, 44.69163922500805, 51.47563414063696, 55.04410581939357, 57.007213540515124]

>  <Cp_T_units>  (4) 
cal/(mol*K)

>  <T_list>  (4) 
[300.0, 400.0, 500.0, 600.0, 800.0, 1000.0, 1500.0, 2000.0, 2400.0]

>  <T_units>  (4) 
K

>  <yaml_path>  (4) 
/home/calvin/Dropbox/PersonalFolders/Calvin/HAb_Converged/rxn_760/output/Species/rxn_760_[CH2]C[=C]C/rxn_760_CH2C=CC.yml

>  <frequencies_cm1>  (4) 
[16.927118813799996, 408.55815859872, 440.6201130578, 480.13274658908, 535.1785009142001, 564.7958085993599, 772.28863702848, 809.22615106476, 852.6048973311998, 966.3153072450799, 1010.98504675168, 1044.81868342332, 1051.75433859652, 1312.85085443356, 1369.4485474409998, 1412.2916688524797, 1471.4644813549198, 1475.4061309286, 1486.0499581746, 1528.0072384798, 3020.1688135892, 3085.2128985402396, 3104.907412438, 3120.7701485272, 3127.7401386269994, 3218.37061088036, 3220.73285383044]

>  <ZPE_kJmol>  (4) 
244.68201818364747

>  <E_elec_kJmol>  (4) 
-411099.8562720568

>  <E0_minus_Eelec_plus_ZPE_kJmol>  (4) 
0.0

>  <rxn>  (4) 
rxn_760

>  <species_type>  (4) 
p1

>  <species_folder>  (4) 
rxn_760_[CH2]C[=C]C

>  <frequencies_cm1_list>  (4) 
[16.927118813799996, 408.55815859872, 440.6201130578, 480.13274658908, 535.1785009142001, 564.7958085993599, 772.28863702848, 809.22615106476, 852.6048973311998, 966.3153072450799, 1010.98504675168, 1044.81868342332, 1051.75433859652, 1312.85085443356, 1369.4485474409998, 1412.2916688524797, 1471.4644813549198, 1475.4061309286, 1486.0499581746, 1528.0072384798, 3020.1688135892, 3085.2128985402396, 3104.907412438, 3120.7701485272, 3127.7401386269994, 3218.37061088036, 3220.73285383044]

>  <E0_kJmol>  (4) 
-410855

>  <H298_kJmol>  (4) 
-410839

$$$$

     RDKit          3D

  4  3  0  0  0  0  0  0  0  0999 V2000
    0.0000    0.0000    0.0000 C   0  0  0  0  0  3  0  0  0  1  0  0
    1.0638   -0.1747    0.0540 H   0  0  0  0  0  0  0  0  0  2  0  0
   -0.6833   -0.8351   -0.0280 H   0  0  0  0  0  0  0  0  0  3  0  0
   -0.3805    1.0098   -0.0260 H   0  0  0  0  0  0  0  0  0  4  0  0
  1  3  1  0
  1  4  1  0
  1  2  1  0
M  RAD  1   1   2
M  END
>  <rmg_smiles>  (5) 
[CH3]

>  <rmg_adjacency_list>  (5) 
multiplicity 2
1 C u1 p0 c0 {2,S} {3,S} {4,S}
2 H u0 p0 c0 {1,S}
3 H u0 p0 c0 {1,S}
4 H u0 p0 c0 {1,S}


>  <multiplicity>  (5) 
2

>  <reaction>  (5) 
rxn_760

>  <type>  (5) 
r2

>  <role_mapnums>  (5) 
{}

>  <role_mapidx>  (5) 
{}

>  <ordered_mapped_smiles>  (5) 
[C:1]([H:2])([H:3])[H:4]

>  <level_of_theory>  (5) 
wb97xd/def2tzvp

>  <lot_method>  (5) 
wb97xd

>  <lot_basis>  (5) 
def2tzvp

>  <spin_multiplicity>  (5) 
2.0

>  <optical_isomers>  (5) 
1.0

>  <modes>  (5) 
IdealGasTranslation(mass=(15.0235, 'amu')),         NonlinearRotor(             inertia = ([1.76141, 1.76141, 3.52282

>  <frequency_value>  (5) 
unknown

>  <frequency_units>  (5) 
unknown

>  <frequency_list>  (5) 
unknown

>  <arkane_path>  (5) 
/home/calvin/Dropbox/PersonalFolders/Calvin/HAb_Converged/rxn_760/output/Species/rxn_760_[CH3]/arkane/output.py

>  <path_exists>  (5) 
True

>  <E0_value>  (5) 
-104520.13119505512

>  <E0_units>  (5) 
kJ/mol

>  <thermo_class>  (5) 
NASA

>  <Cp0_value>  (5) 
33.257888

>  <Cp0_units>  (5) 
J/(mol*K)

>  <CpInf_value>  (5) 
83.14472

>  <CpInf_units>  (5) 
J/(mol*K)

>  <Tmin_value>  (5) 
10.0

>  <Tmin_units>  (5) 
K

>  <Tmax_value>  (5) 
3000.0

>  <Tmax_units>  (5) 
K

>  <polynomials>  (5) 
[{"name": "polynomial1", "class": "NASAPolynomial", "Tmin_value": 10.0, "Tmin_units": "K", "Tmax_value": 646.6680568167106, "Tmax_units": "K", "coeffs": [3.9912271000461548, 0.0004274218009639198, 9.38132315134313e-06, -1.0944874554220949e-08, 4.263406085556096e-12, -12570867.748368958, 0.20527673099681187]}, {"name": "polynomial2", "class": "NASAPolynomial", "Tmin_value": 646.6680568167106, "Tmin_units": "K", "Tmax_value": 3000.0, "Tmax_units": "K", "coeffs": [3.2488827598675174, 0.0050187516265713635, -1.2675301815554908e-06, 3.215102013021586e-11, 2.0164394281080815e-14, -12570771.728238096, 3.4631324604304954]}]

>  <H298_value>  (5) 
-24978.383291331436

>  <H298_units>  (5) 
kcal/mol

>  <S298_value>  (5) 
46.49953999396709

>  <S298_units>  (5) 
cal/(mol*K)

>  <Cp_T_value_list>  (5) 
[9.345424201068383, 10.07887042200736, 10.827537754048599, 11.552428339520182, 12.871902382304132, 14.014614114932202, 16.167234911840477, 17.479674567657305, 18.096247059343543]

>  <Cp_T_units>  (5) 
cal/(mol*K)

>  <T_list>  (5) 
[300.0, 400.0, 500.0, 600.0, 800.0, 1000.0, 1500.0, 2000.0, 2400.0]

>  <T_units>  (5) 
K

>  <yaml_path>  (5) 
/home/calvin/Dropbox/PersonalFolders/Calvin/HAb_Converged/rxn_760/output/Species/rxn_760_[CH3]/rxn_760_CH3.yml

>  <frequencies_cm1>  (5) 
[520.22220688724, 1393.4280601784399, 1393.43492716376, 3088.8592677451597, 3268.6163424668, 3268.6232094521197]

>  <ZPE_kJmol>  (5) 
77.35764153782172

>  <E_elec_kJmol>  (5) 
-104597.48883659294

>  <E0_minus_Eelec_plus_ZPE_kJmol>  (5) 
0.0

>  <rxn>  (5) 
rxn_760

>  <species_type>  (5) 
r0

>  <species_folder>  (5) 
rxn_760_[CH3]

>  <frequencies_cm1_list>  (5) 
[520.22220688724, 1393.4280601784399, 1393.43492716376, 3088.8592677451597, 3268.6163424668, 3268.6232094521197]

>  <E0_kJmol>  (5) 
-104520

>  <H298_kJmol>  (5) 
-104510

$$$$
