
     RDKit          3D

 12 11  0  0  0  0  0  0  0  0999 V2000
   -0.4955    0.0079   -1.3815 C   0  0  0  0  0  0  0  0  0  1  0  0
   -0.2575   -0.1397    0.1032 C   0  0  0  0  0  0  0  0  0  2  0  0
   -0.1970    1.1521    0.8722 C   0  0  0  0  0  0  0  0  0  3  0  0
    0.8775   -0.8985    0.4090 O   0  0  0  0  0  0  0  0  0  4  0  0
    0.3297    0.5486   -1.8545 H   0  0  0  0  0  0  0  0  0  5  0  0
   -1.4211    0.5548   -1.5679 H   0  0  0  0  0  0  0  0  0  6  0  0
   -0.5857   -0.9700   -1.8627 H   0  0  0  0  0  0  0  0  0  7  0  0
   -1.1261   -0.6751    0.4865 H   0  0  0  0  0  0  0  0  0  8  0  0
   -1.1180    1.7198    0.7333 H   0  0  0  0  0  0  0  0  0  9  0  0
   -0.0672    0.9531    1.9364 H   0  0  0  0  0  0  0  0  0 10  0  0
    0.6436    1.7645    0.5327 H   0  0  0  0  0  0  0  0  0 11  0  0
    0.8689   -1.6982   -0.1202 H   0  0  0  0  0  0  0  0  0 12  0  0
  1  5  1  0
  1  7  1  0
  1  6  1  0
  1  2  1  0
  2  4  1  0
  2  8  1  0
  2  3  1  0
  3 11  1  0
  3  9  1  0
  3 10  1  0
  4 12  1  0
M  END
>  <rmg_smiles>  (1) 
CC(C)O

>  <rmg_adjacency_list>  (1) 
1  O u0 p2 c0 {2,S} {12,S}
2  C u0 p0 c0 {1,S} {3,S} {4,S} {5,S}
3  C u0 p0 c0 {2,S} {6,S} {7,S} {8,S}
4  C u0 p0 c0 {2,S} {9,S} {10,S} {11,S}
5  H u0 p0 c0 {2,S}
6  H u0 p0 c0 {3,S}
7  H u0 p0 c0 {3,S}
8  H u0 p0 c0 {3,S}
9  H u0 p0 c0 {4,S}
10 H u0 p0 c0 {4,S}
11 H u0 p0 c0 {4,S}
12 H u0 p0 c0 {1,S}


>  <multiplicity>  (1) 
1

>  <reaction>  (1) 
rxn_752

>  <type>  (1) 
r1h

>  <role_mapnums>  (1) 
{"r1h_a": 2, "r1h_h": 8}

>  <role_mapidx>  (1) 
{"r1h_a": 1, "r1h_h": 7}

>  <ordered_mapped_smiles>  (1) 
[C:1]([C:2]([C:3]([H:9])([H:10])[H:11])([O:4][H:12])[H:8])([H:5])([H:6])[H:7]

>  <mol_properties>  (1) 
{"1": {"label": "donator", "atom_type": "Cs"}, "7": {"label": "d_hydrogen", "atom_type": "H0"}}

>  <level_of_theory>  (1) 
wb97xd/def2tzvp

>  <lot_method>  (1) 
wb97xd

>  <lot_basis>  (1) 
def2tzvp

>  <spin_multiplicity>  (1) 
1.0

>  <optical_isomers>  (1) 
1.0

>  <modes>  (1) 
IdealGasTranslation(mass=(60.0575, 'amu')),         NonlinearRotor(             inertia = ([59.0782, 62.5024, 105.302

>  <frequency_value>  (1) 
unknown

>  <frequency_units>  (1) 
unknown

>  <frequency_list>  (1) 
unknown

>  <arkane_path>  (1) 
/home/calvin/Dropbox/PersonalFolders/Calvin/HAb_Converged/rxn_752/output/Species/rxn_752_CC[C]O/arkane/output.py

>  <path_exists>  (1) 
True

>  <E0_value>  (1) 
-510059.8036914954

>  <E0_units>  (1) 
kJ/mol

>  <thermo_class>  (1) 
NASA

>  <Cp0_value>  (1) 
33.257888

>  <Cp0_units>  (1) 
J/(mol*K)

>  <CpInf_value>  (1) 
282.692048

>  <CpInf_units>  (1) 
J/(mol*K)

>  <Tmin_value>  (1) 
10.0

>  <Tmin_units>  (1) 
K

>  <Tmax_value>  (1) 
3000.0

>  <Tmax_units>  (1) 
K

>  <polynomials>  (1) 
[{"name": "polynomial1", "class": "NASAPolynomial", "Tmin_value": 10.0, "Tmin_units": "K", "Tmax_value": 400.9020808766754, "Tmax_units": "K", "coeffs": [3.908564710513863, 0.006244487431088697, 0.00010549336489374266, -2.0627835098062713e-07, 1.3170726813053246e-10, -61346021.25586771, 8.580350223084357]}, {"name": "polynomial2", "class": "NASAPolynomial", "Tmin_value": 400.9020808766754, "Tmin_units": "K", "Tmax_value": 3000.0, "Tmax_units": "K", "coeffs": [0.49014348141201425, 0.04035152707211111, -2.2119289645414613e-05, 5.929252806723719e-09, -6.230656007639228e-13, -61345747.163391285, 21.94771491946984]}]

>  <H298_value>  (1) 
-121903.1825570922

>  <H298_units>  (1) 
kcal/mol

>  <S298_value>  (1) 
71.20722519543597

>  <S298_units>  (1) 
cal/(mol*K)

>  <Cp_T_value_list>  (1) 
[21.40942196234344, 26.73824037851381, 31.473971942934085, 35.64667864325956, 42.51745461177455, 47.749726764941144, 55.85240804337385, 59.97590302438158, 62.04231507661801]

>  <Cp_T_units>  (1) 
cal/(mol*K)

>  <T_list>  (1) 
[300.0, 400.0, 500.0, 600.0, 800.0, 1000.0, 1500.0, 2000.0, 2400.0]

>  <T_units>  (1) 
K

>  <yaml_path>  (1) 
/home/calvin/Dropbox/PersonalFolders/Calvin/HAb_Converged/rxn_752/output/Species/rxn_752_CC[C]O/rxn_752_CCCO.yml

>  <frequencies_cm1>  (1) 
[229.46718145312, 262.70339040192, 271.48626462619995, 365.52962858359996, 432.36599670315996, 478.39539930312, 822.4931667029999, 921.98891700448, 936.2997144113599, 976.16943117928, 1085.3956996791999, 1148.159945504, 1187.44596851972, 1299.233622544, 1355.03474525432, 1392.7070267198399, 1401.0160789570398, 1412.6624860597599, 1468.4155398728396, 1471.079930177, 1484.2920099326798, 1491.9761665057597, 3001.8682977114, 3004.9653080907196, 3035.6057965885598, 3072.7424531991196, 3083.4343493423594, 3101.3983829394797, 3103.8636306693593, 3820.1245344719596]

>  <ZPE_kJmol>  (1) 
281.83022732440185

>  <E_elec_kJmol>  (1) 
-510341.6339188198

>  <E0_minus_Eelec_plus_ZPE_kJmol>  (1) 
0.0

>  <rxn>  (1) 
rxn_752

>  <species_type>  (1) 
r0

>  <species_folder>  (1) 
rxn_752_CC[C]O

>  <frequencies_cm1_list>  (1) 
[229.46718145312, 262.70339040192, 271.48626462619995, 365.52962858359996, 432.36599670315996, 478.39539930312, 822.4931667029999, 921.98891700448, 936.2997144113599, 976.16943117928, 1085.3956996791999, 1148.159945504, 1187.44596851972, 1299.233622544, 1355.03474525432, 1392.7070267198399, 1401.0160789570398, 1412.6624860597599, 1468.4155398728396, 1471.079930177, 1484.2920099326798, 1491.9761665057597, 3001.8682977114, 3004.9653080907196, 3035.6057965885598, 3072.7424531991196, 3083.4343493423594, 3101.3983829394797, 3103.8636306693593, 3820.1245344719596]

>  <E0_kJmol>  (1) 
-510060

>  <H298_kJmol>  (1) 
-510043

$$$$

     RDKit          3D

  5  4  0  0  0  0  0  0  0  0999 V2000
    0.8053    0.5439   -0.3803 H   0  0  0  0  0  0  0  0  0  1  0  0
   -0.0328   -0.0217    0.0147 C   0  0  0  0  0  0  0  0  0  2  0  0
   -0.2194   -0.7897   -0.7299 H   0  0  0  0  0  0  0  0  0  3  0  0
   -0.8316    0.7068    0.1115 H   0  0  0  0  0  0  0  0  0  4  0  0
    0.3491   -0.3964    0.9588 H   0  0  0  0  0  0  0  0  0  5  0  0
  1  2  1  0
  2  5  1  0
  2  3  1  0
  2  4  1  0
M  END
>  <rmg_smiles>  (2) 
C

>  <rmg_adjacency_list>  (2) 
1 H u0 p0 c0 {2,S}
2 C u0 p0 c0 {1,S} {3,S} {4,S} {5,S}
3 H u0 p0 c0 {2,S}
4 H u0 p0 c0 {2,S}
5 H u0 p0 c0 {2,S}


>  <multiplicity>  (2) 
1

>  <reaction>  (2) 
rxn_752

>  <type>  (2) 
r2h

>  <role_mapnums>  (2) 
{"r2h_a": 2, "r2h_h": 1}

>  <role_mapidx>  (2) 
{"r2h_a": 1, "r2h_h": 0}

>  <ordered_mapped_smiles>  (2) 
[H:1][C:2]([H:3])([H:4])[H:5]

>  <mol_properties>  (2) 
{"0": {"label": "a_hydrogen", "atom_type": "H0"}, "1": {"label": "acceptor", "atom_type": "Cs"}}

>  <level_of_theory>  (2) 
wb97xd/def2tzvp

>  <lot_method>  (2) 
wb97xd

>  <lot_basis>  (2) 
def2tzvp

>  <spin_multiplicity>  (2) 
1.0

>  <optical_isomers>  (2) 
1.0

>  <modes>  (2) 
IdealGasTranslation(mass=(16.0313, 'amu')),         NonlinearRotor(             inertia = ([3.18679, 3.18679, 3.18679

>  <frequency_value>  (2) 
unknown

>  <frequency_units>  (2) 
unknown

>  <frequency_list>  (2) 
unknown

>  <arkane_path>  (2) 
/home/calvin/Dropbox/PersonalFolders/Calvin/HAb_Converged/rxn_752/output/Species/rxn_752_C/arkane/output.py

>  <path_exists>  (2) 
True

>  <E0_value>  (2) 
-106268.5262916272

>  <E0_units>  (2) 
kJ/mol

>  <thermo_class>  (2) 
NASA

>  <Cp0_value>  (2) 
33.257888

>  <Cp0_units>  (2) 
J/(mol*K)

>  <CpInf_value>  (2) 
108.088136

>  <CpInf_units>  (2) 
J/(mol*K)

>  <Tmin_value>  (2) 
10.0

>  <Tmin_units>  (2) 
K

>  <Tmax_value>  (2) 
3000.0

>  <Tmax_units>  (2) 
K

>  <polynomials>  (2) 
[{"name": "polynomial1", "class": "NASAPolynomial", "Tmin_value": 10.0, "Tmin_units": "K", "Tmax_value": 616.7595780986624, "Tmax_units": "K", "coeffs": [4.041420799946622, -0.002477807655966685, 1.1290457802459216e-05, 3.700688819348292e-09, -9.366412561864162e-12, -12781153.318458663, -0.42637433538586406]}, {"name": "polynomial2", "class": "NASAPolynomial", "Tmin_value": 616.7595780986624, "Tmin_units": "K", "Tmax_value": 3000.0, "Tmax_units": "K", "coeffs": [0.6800320423470843, 0.011684066325645743, -4.5749540261290126e-06, 7.694671628924811e-10, -3.8768177461555664e-14, -12780593.404419335, 15.343675764562182]}]

>  <H298_value>  (2) 
-25396.41264990868

>  <H298_units>  (2) 
kcal/mol

>  <S298_value>  (2) 
44.46392088520575

>  <S298_units>  (2) 
cal/(mol*K)

>  <Cp_T_value_list>  (2) 
[8.621039065772948, 9.645572285350525, 10.934239595808906, 12.330144838344452, 14.859142397339834, 16.9306880471269, 20.49440393107996, 22.423230884533538, 23.291918246513866]

>  <Cp_T_units>  (2) 
cal/(mol*K)

>  <T_list>  (2) 
[300.0, 400.0, 500.0, 600.0, 800.0, 1000.0, 1500.0, 2000.0, 2400.0]

>  <T_units>  (2) 
K

>  <yaml_path>  (2) 
/home/calvin/Dropbox/PersonalFolders/Calvin/HAb_Converged/rxn_752/output/Species/rxn_752_C/rxn_752_C.yml

>  <frequencies_cm1>  (2) 
[1326.5504901469599, 1326.5504901469599, 1326.5504901469599, 1542.24249904816, 1542.24249904816, 3008.8382878112, 3127.32125252248, 3127.32125252248, 3127.32125252248]

>  <ZPE_kJmol>  (2) 
116.36640738144024

>  <E_elec_kJmol>  (2) 
-106384.89269900863

>  <E0_minus_Eelec_plus_ZPE_kJmol>  (2) 
0.0

>  <rxn>  (2) 
rxn_752

>  <species_type>  (2) 
p0

>  <species_folder>  (2) 
rxn_752_C

>  <frequencies_cm1_list>  (2) 
[1326.5504901469599, 1326.5504901469599, 1326.5504901469599, 1542.24249904816, 1542.24249904816, 3008.8382878112, 3127.32125252248, 3127.32125252248, 3127.32125252248]

>  <E0_kJmol>  (2) 
-106269

>  <H298_kJmol>  (2) 
-106259

$$$$

     RDKit          3D

 16 14  0  0  0  0  0  0  0  0999 V2000
    0.0552    0.3882   -1.6086 C   0  0  0  0  0  0  0  0  0  1  0  0
    0.2932    0.2407   -0.1239 C   0  0  0  0  0  0  0  0  0  2  0  0
    0.3537    1.5324    0.6451 C   0  0  0  0  0  0  0  0  0  3  0  0
    1.4282   -0.5182    0.1819 O   0  0  0  0  0  0  0  0  0  4  0  0
    0.8804    0.9289   -2.0816 H   0  0  0  0  0  0  0  0  0  5  0  0
   -0.8704    0.9351   -1.7950 H   0  0  0  0  0  0  0  0  0  6  0  0
   -0.0350   -0.5897   -2.0897 H   0  0  0  0  0  0  0  0  0  7  0  0
   -0.7142   -0.3804    0.3207 H   0  0  0  0  0  0  0  0  0  8  0  0
   -0.5673    2.1001    0.5063 H   0  0  0  0  0  0  0  0  0  9  0  0
    0.4834    1.3334    1.7093 H   0  0  0  0  0  0  0  0  0 10  0  0
    1.1943    2.1448    0.3056 H   0  0  0  0  0  0  0  0  0 11  0  0
    1.4195   -1.3178   -0.3473 H   0  0  0  0  0  0  0  0  0 12  0  0
   -1.8391   -1.1395    0.8508 C   0  0  0  0  0  3  0  0  0 13  0  0
   -2.0257   -1.9075    0.1062 H   0  0  0  0  0  0  0  0  0 14  0  0
   -2.6379   -0.4111    0.9476 H   0  0  0  0  0  0  0  0  0 15  0  0
   -1.4572   -1.5143    1.7949 H   0  0  0  0  0  0  0  0  0 16  0  0
  1  5  1  0
  1  7  1  0
  1  6  1  0
  1  2  1  0
  2  4  1  0
  2  8  1  0
  2  3  1  0
  3 11  1  0
  3  9  1  0
  3 10  1  0
  4 12  1  0
 13 14  1  0
 13 16  1  0
 13 15  1  0
M  RAD  1  13   2
M  END
>  <rmg_smiles>  (3) 
CC(C)O.[CH3]

>  <rmg_adjacency_list>  (3) 
multiplicity 2
1  O u0 p2 c0 {2,S} {16,S}
2  C u0 p0 c0 {1,S} {3,S} {4,S} {6,S}
3  C u0 p0 c0 {2,S} {7,S} {8,S} {9,S}
4  C u0 p0 c0 {2,S} {10,S} {11,S} {12,S}
5  C u1 p0 c0 {13,S} {14,S} {15,S}
6  H u0 p0 c0 {2,S}
7  H u0 p0 c0 {3,S}
8  H u0 p0 c0 {3,S}
9  H u0 p0 c0 {3,S}
10 H u0 p0 c0 {4,S}
11 H u0 p0 c0 {4,S}
12 H u0 p0 c0 {4,S}
13 H u0 p0 c0 {5,S}
14 H u0 p0 c0 {5,S}
15 H u0 p0 c0 {5,S}
16 H u0 p0 c0 {1,S}


>  <multiplicity>  (3) 
2

>  <reaction>  (3) 
rxn_752

>  <type>  (3) 
ts

>  <role_mapnums>  (3) 
{"*2": 8, "*1": 2, "*3": 13, "*0": 4, "*4": 14}

>  <role_mapidx>  (3) 
{"*2": 7, "*1": 1, "*3": 12, "*0": 3, "*4": 13}

>  <ordered_mapped_smiles>  (3) 
[C:1]([C:2]([C:3]([H:9])([H:10])[H:11])([O:4][H:12])[H:8])([H:5])([H:6])[H:7].[C:13]([H:14])([H:15])[H:16]

>  <mol_properties>  (3) 
{"1": {"label": "*1", "atom_type": "Cs"}, "3": {"label": "*0", "atom_type": "O2s"}, "7": {"label": "*2", "atom_type": "H0"}, "12": {"label": "*3", "atom_type": "Cs"}, "13": {"label": "*4", "atom_type": "H0"}}

>  <level_of_theory>  (3) 
wb97xd/def2tzvp

>  <lot_method>  (3) 
wb97xd

>  <lot_basis>  (3) 
def2tzvp

>  <spin_multiplicity>  (3) 
2.0

>  <optical_isomers>  (3) 
2.0

>  <modes>  (3) 
IdealGasTranslation(mass=(75.081, 'amu')),         NonlinearRotor(             inertia = ([109.469, 173.66, 179.257

>  <frequency_value>  (3) 
-1472.39

>  <frequency_units>  (3) 
cm^-1

>  <frequency_list>  (3) 
unknown

>  <arkane_path>  (3) 
/home/calvin/Dropbox/PersonalFolders/Calvin/HAb_Converged/rxn_752/output/rxns/TS0/arkane/output.py

>  <path_exists>  (3) 
True

>  <E0_value>  (3) 
-614550.0

>  <E0_units>  (3) 
kJ/mol

>  <thermo_class>  (3) 
unknown

>  <Cp0_value>  (3) 
unknown

>  <Cp0_units>  (3) 
unknown

>  <CpInf_value>  (3) 
unknown

>  <CpInf_units>  (3) 
unknown

>  <Tmin_value>  (3) 
unknown

>  <Tmin_units>  (3) 
unknown

>  <Tmax_value>  (3) 
unknown

>  <Tmax_units>  (3) 
unknown

>  <polynomials>  (3) 
unknown

>  <H298_value>  (3) 
unknown

>  <H298_units>  (3) 
unknown

>  <S298_value>  (3) 
unknown

>  <S298_units>  (3) 
unknown

>  <Cp_T_value_list>  (3) 
unknown

>  <Cp_T_units>  (3) 
unknown

>  <T_list>  (3) 
unknown

>  <T_units>  (3) 
unknown

>  <yaml_path>  (3) 
unknown

>  <frequencies_cm1>  (3) 
unknown

>  <ZPE_kJmol>  (3) 
unknown

>  <E_elec_kJmol>  (3) 
unknown

>  <E0_minus_Eelec_plus_ZPE_kJmol>  (3) 
unknown

>  <rxn>  (3) 
unknown

>  <species_type>  (3) 
unknown

>  <species_folder>  (3) 
unknown

>  <frequencies_cm1_list>  (3) 
[]

>  <ts_imag_freq_cm1>  (3) 
-1490.2737

>  <ts_freq_out_path>  (3) 
/home/calvin/Dropbox/PersonalFolders/Calvin/HAb_Converged/rxn_752/output/rxns/TS0/geometry/freq.out

>  <E0_kJmol>  (3) 
-614550

>  <H298_kJmol>  (3) 
unknown

$$$$

     RDKit          3D

 11 10  0  0  0  0  0  0  0  0999 V2000
    0.9572   -0.6090    0.4815 C   0  0  0  0  0  0  0  0  0  1  0  0
   -0.1140    0.2549   -0.0744 C   0  0  0  0  0  3  0  0  0  2  0  0
   -0.2703    1.6689    0.3657 C   0  0  0  0  0  0  0  0  0  3  0  0
   -0.3749   -0.0174   -1.3946 O   0  0  0  0  0  0  0  0  0  4  0  0
    0.9958   -0.5229    1.5679 H   0  0  0  0  0  0  0  0  0  5  0  0
    0.7840   -1.6543    0.2205 H   0  0  0  0  0  0  0  0  0  6  0  0
    1.9485   -0.3337    0.0895 H   0  0  0  0  0  0  0  0  0  7  0  0
    0.5014    2.3227   -0.0709 H   0  0  0  0  0  0  0  0  0  8  0  0
   -1.2440    2.0765    0.0753 H   0  0  0  0  0  0  0  0  0  9  0  0
   -0.1915    1.7457    1.4503 H   0  0  0  0  0  0  0  0  0 10  0  0
   -1.0249    0.6052   -1.7255 H   0  0  0  0  0  0  0  0  0 11  0  0
  1  5  1  0
  1  7  1  0
  1  6  1  0
  1  2  1  0
  2  4  1  0
  2  3  1  0
  3  9  1  0
  3 10  1  0
  3  8  1  0
  4 11  1  0
M  RAD  1   2   2
M  END
>  <rmg_smiles>  (4) 
C[C](C)O

>  <rmg_adjacency_list>  (4) 
multiplicity 2
1  O u0 p2 c0 {4,S} {11,S}
2  C u0 p0 c0 {4,S} {5,S} {6,S} {7,S}
3  C u0 p0 c0 {4,S} {8,S} {9,S} {10,S}
4  C u1 p0 c0 {1,S} {2,S} {3,S}
5  H u0 p0 c0 {2,S}
6  H u0 p0 c0 {2,S}
7  H u0 p0 c0 {2,S}
8  H u0 p0 c0 {3,S}
9  H u0 p0 c0 {3,S}
10 H u0 p0 c0 {3,S}
11 H u0 p0 c0 {1,S}


>  <multiplicity>  (4) 
2

>  <reaction>  (4) 
rxn_752

>  <type>  (4) 
r1

>  <role_mapnums>  (4) 
{}

>  <role_mapidx>  (4) 
{}

>  <ordered_mapped_smiles>  (4) 
[C:1]([C:2]([C:3]([H:8])([H:9])[H:10])[O:4][H:11])([H:5])([H:6])[H:7]

>  <level_of_theory>  (4) 
wb97xd/def2tzvp

>  <lot_method>  (4) 
wb97xd

>  <lot_basis>  (4) 
def2tzvp

>  <spin_multiplicity>  (4) 
2.0

>  <optical_isomers>  (4) 
2.0

>  <modes>  (4) 
IdealGasTranslation(mass=(59.0497, 'amu')),         NonlinearRotor(             inertia = ([53.932, 61.7904, 108.15

>  <frequency_value>  (4) 
unknown

>  <frequency_units>  (4) 
unknown

>  <frequency_list>  (4) 
unknown

>  <arkane_path>  (4) 
/home/calvin/Dropbox/PersonalFolders/Calvin/HAb_Converged/rxn_752/output/Species/rxn_752_C[C][C]O/arkane/output.py

>  <path_exists>  (4) 
True

>  <E0_value>  (4) 
-508366.369291562

>  <E0_units>  (4) 
kJ/mol

>  <thermo_class>  (4) 
NASA

>  <Cp0_value>  (4) 
33.257888

>  <Cp0_units>  (4) 
J/(mol*K)

>  <CpInf_value>  (4) 
257.748632

>  <CpInf_units>  (4) 
J/(mol*K)

>  <Tmin_value>  (4) 
10.0

>  <Tmin_units>  (4) 
K

>  <Tmax_value>  (4) 
3000.0

>  <Tmax_units>  (4) 
K

>  <polynomials>  (4) 
[{"name": "polynomial1", "class": "NASAPolynomial", "Tmin_value": 10.0, "Tmin_units": "K", "Tmax_value": 390.19240329509864, "Tmax_units": "K", "coeffs": [3.808891129073653, 0.014679021313743346, 5.901212234096371e-05, -1.2822729447216968e-07, 8.484951143075864e-11, -61142346.93346516, 10.033571342534389]}, {"name": "polynomial2", "class": "NASAPolynomial", "Tmin_value": 390.19240329509864, "Tmin_units": "K", "Tmax_value": 3000.0, "Tmax_units": "K", "coeffs": [1.8301163491553412, 0.03496422706104834, -1.8969763794884555e-05, 5.009917161999908e-09, -5.172101409405023e-13, -61142192.513552316, 17.71775204104298]}]

>  <H298_value>  (4) 
-121498.30718414966

>  <H298_units>  (4) 
kcal/mol

>  <S298_value>  (4) 
75.04476798878845

>  <S298_units>  (4) 
cal/(mol*K)

>  <Cp_T_value_list>  (4) 
[21.36015007152684, 26.008636354782688, 30.133409065702423, 33.77187755522955, 39.77210488382701, 44.34905708751039, 51.43801058967031, 55.012811958225164, 56.785867508085055]

>  <Cp_T_units>  (4) 
cal/(mol*K)

>  <T_list>  (4) 
[300.0, 400.0, 500.0, 600.0, 800.0, 1000.0, 1500.0, 2000.0, 2400.0]

>  <T_units>  (4) 
K

>  <yaml_path>  (4) 
/home/calvin/Dropbox/PersonalFolders/Calvin/HAb_Converged/rxn_752/output/Species/rxn_752_C[C][C]O/rxn_752_CCCO.yml

>  <frequencies_cm1>  (4) 
[165.68662180095998, 184.23434915028, 326.1131328468, 357.55705862708004, 378.45329495583997, 435.44240612652, 797.7514185950399, 948.4680123984, 972.2964514588, 1009.8588611591999, 1081.5707888559598, 1136.52727237192, 1312.58304200608, 1364.69659359956, 1403.2409822007198, 1414.7019806998, 1451.3716823086002, 1464.2884816955202, 1472.6662037859198, 1480.7486455075598, 2926.55120272164, 2938.5958949729197, 3019.2967064535596, 3051.5440695162797, 3092.2927604051597, 3101.94087477976, 3839.8808512375995]

>  <ZPE_kJmol>  (4) 
246.0022913669416

>  <E_elec_kJmol>  (4) 
-508612.37158292887

>  <E0_minus_Eelec_plus_ZPE_kJmol>  (4) 
0.0

>  <rxn>  (4) 
rxn_752

>  <species_type>  (4) 
p1

>  <species_folder>  (4) 
rxn_752_C[C][C]O

>  <frequencies_cm1_list>  (4) 
[165.68662180095998, 184.23434915028, 326.1131328468, 357.55705862708004, 378.45329495583997, 435.44240612652, 797.7514185950399, 948.4680123984, 972.2964514588, 1009.8588611591999, 1081.5707888559598, 1136.52727237192, 1312.58304200608, 1364.69659359956, 1403.2409822007198, 1414.7019806998, 1451.3716823086002, 1464.2884816955202, 1472.6662037859198, 1480.7486455075598, 2926.55120272164, 2938.5958949729197, 3019.2967064535596, 3051.5440695162797, 3092.2927604051597, 3101.94087477976, 3839.8808512375995]

>  <E0_kJmol>  (4) 
-508366

>  <H298_kJmol>  (4) 
-508349

$$$$

     RDKit          3D

  4  3  0  0  0  0  0  0  0  0999 V2000
    0.0000    0.0000    0.0000 C   0  0  0  0  0  3  0  0  0  1  0  0
    1.0638   -0.1747    0.0540 H   0  0  0  0  0  0  0  0  0  2  0  0
   -0.6833   -0.8351   -0.0280 H   0  0  0  0  0  0  0  0  0  3  0  0
   -0.3805    1.0098   -0.0260 H   0  0  0  0  0  0  0  0  0  4  0  0
  1  3  1  0
  1  4  1  0
  1  2  1  0
M  RAD  1   1   2
M  END
>  <rmg_smiles>  (5) 
[CH3]

>  <rmg_adjacency_list>  (5) 
multiplicity 2
1 C u1 p0 c0 {2,S} {3,S} {4,S}
2 H u0 p0 c0 {1,S}
3 H u0 p0 c0 {1,S}
4 H u0 p0 c0 {1,S}


>  <multiplicity>  (5) 
2

>  <reaction>  (5) 
rxn_752

>  <type>  (5) 
r2

>  <role_mapnums>  (5) 
{}

>  <role_mapidx>  (5) 
{}

>  <ordered_mapped_smiles>  (5) 
[C:1]([H:2])([H:3])[H:4]

>  <level_of_theory>  (5) 
wb97xd/def2tzvp

>  <lot_method>  (5) 
wb97xd

>  <lot_basis>  (5) 
def2tzvp

>  <spin_multiplicity>  (5) 
2.0

>  <optical_isomers>  (5) 
1.0

>  <modes>  (5) 
IdealGasTranslation(mass=(15.0235, 'amu')),         NonlinearRotor(             inertia = ([1.76141, 1.76141, 3.52282

>  <frequency_value>  (5) 
unknown

>  <frequency_units>  (5) 
unknown

>  <frequency_list>  (5) 
unknown

>  <arkane_path>  (5) 
/home/calvin/Dropbox/PersonalFolders/Calvin/HAb_Converged/rxn_752/output/Species/rxn_752_[CH3]/arkane/output.py

>  <path_exists>  (5) 
True

>  <E0_value>  (5) 
-104520.13119505512

>  <E0_units>  (5) 
kJ/mol

>  <thermo_class>  (5) 
NASA

>  <Cp0_value>  (5) 
33.257888

>  <Cp0_units>  (5) 
J/(mol*K)

>  <CpInf_value>  (5) 
83.14472

>  <CpInf_units>  (5) 
J/(mol*K)

>  <Tmin_value>  (5) 
10.0

>  <Tmin_units>  (5) 
K

>  <Tmax_value>  (5) 
3000.0

>  <Tmax_units>  (5) 
K

>  <polynomials>  (5) 
[{"name": "polynomial1", "class": "NASAPolynomial", "Tmin_value": 10.0, "Tmin_units": "K", "Tmax_value": 646.6680568167106, "Tmax_units": "K", "coeffs": [3.9912271000461548, 0.0004274218009639198, 9.38132315134313e-06, -1.0944874554220949e-08, 4.263406085556096e-12, -12570867.748368958, 0.20527673099681187]}, {"name": "polynomial2", "class": "NASAPolynomial", "Tmin_value": 646.6680568167106, "Tmin_units": "K", "Tmax_value": 3000.0, "Tmax_units": "K", "coeffs": [3.2488827598675174, 0.0050187516265713635, -1.2675301815554908e-06, 3.215102013021586e-11, 2.0164394281080815e-14, -12570771.728238096, 3.4631324604304954]}]

>  <H298_value>  (5) 
-24978.383291331436

>  <H298_units>  (5) 
kcal/mol

>  <S298_value>  (5) 
46.49953999396709

>  <S298_units>  (5) 
cal/(mol*K)

>  <Cp_T_value_list>  (5) 
[9.345424201068383, 10.07887042200736, 10.827537754048599, 11.552428339520182, 12.871902382304132, 14.014614114932202, 16.167234911840477, 17.479674567657305, 18.096247059343543]

>  <Cp_T_units>  (5) 
cal/(mol*K)

>  <T_list>  (5) 
[300.0, 400.0, 500.0, 600.0, 800.0, 1000.0, 1500.0, 2000.0, 2400.0]

>  <T_units>  (5) 
K

>  <yaml_path>  (5) 
/home/calvin/Dropbox/PersonalFolders/Calvin/HAb_Converged/rxn_752/output/Species/rxn_752_[CH3]/rxn_752_CH3.yml

>  <frequencies_cm1>  (5) 
[520.22220688724, 1393.4280601784399, 1393.43492716376, 3088.8592677451597, 3268.6163424668, 3268.6232094521197]

>  <ZPE_kJmol>  (5) 
77.35764153782172

>  <E_elec_kJmol>  (5) 
-104597.48883659294

>  <E0_minus_Eelec_plus_ZPE_kJmol>  (5) 
0.0

>  <rxn>  (5) 
rxn_752

>  <species_type>  (5) 
r1

>  <species_folder>  (5) 
rxn_752_[CH3]

>  <frequencies_cm1_list>  (5) 
[520.22220688724, 1393.4280601784399, 1393.43492716376, 3088.8592677451597, 3268.6163424668, 3268.6232094521197]

>  <E0_kJmol>  (5) 
-104520

>  <H298_kJmol>  (5) 
-104510

$$$$
