
     RDKit          3D

 11 10  0  0  0  0  0  0  0  0999 V2000
   -0.5523   -0.9030   -0.7606 C   0  0  0  0  0  0  0  0  0  1  0  0
   -0.1835   -0.1413    0.4797 C   0  0  0  0  0  0  0  0  0  2  0  0
    0.6965    1.0618    0.2975 C   0  0  0  0  0  0  0  0  0  3  0  0
    0.3410   -1.1661   -1.3332 H   0  0  0  0  0  0  0  0  0  4  0  0
   -1.1940   -0.3030   -1.4161 H   0  0  0  0  0  0  0  0  0  5  0  0
   -1.0874   -1.8235   -0.5221 H   0  0  0  0  0  0  0  0  0  6  0  0
    0.4510   -0.8471    1.0145 H   0  0  0  0  0  0  0  0  0  7  0  0
   -1.0043   -0.0007    1.1822 H   0  0  0  0  0  0  0  0  0  8  0  0
    0.2079    1.8172   -0.3294 H   0  0  0  0  0  0  0  0  0  9  0  0
    0.9413    1.5322    1.2507 H   0  0  0  0  0  0  0  0  0 10  0  0
    1.6312    0.7851   -0.1984 H   0  0  0  0  0  0  0  0  0 11  0  0
  1  5  1  0
  1  4  1  0
  1  6  1  0
  1  2  1  0
  2  7  1  0
  2  8  1  0
  2  3  1  0
  3 11  1  0
  3  9  1  0
  3 10  1  0
M  END
>  <rmg_smiles>  (1) 
CCC

>  <rmg_adjacency_list>  (1) 
1  C u0 p0 c0 {2,S} {4,S} {5,S} {6,S}
2  C u0 p0 c0 {1,S} {3,S} {7,S} {8,S}
3  C u0 p0 c0 {2,S} {9,S} {10,S} {11,S}
4  H u0 p0 c0 {1,S}
5  H u0 p0 c0 {1,S}
6  H u0 p0 c0 {1,S}
7  H u0 p0 c0 {2,S}
8  H u0 p0 c0 {2,S}
9  H u0 p0 c0 {3,S}
10 H u0 p0 c0 {3,S}
11 H u0 p0 c0 {3,S}


>  <multiplicity>  (1) 
1

>  <reaction>  (1) 
rxn_940

>  <type>  (1) 
r1h

>  <role_mapnums>  (1) 
{"r1h_a": 2, "r1h_h": 7}

>  <role_mapidx>  (1) 
{"r1h_a": 1, "r1h_h": 6}

>  <ordered_mapped_smiles>  (1) 
[C:1]([C:2]([C:3]([H:9])([H:10])[H:11])([H:7])[H:8])([H:4])([H:5])[H:6]

>  <mol_properties>  (1) 
{"1": {"label": "donator", "atom_type": "Cs"}, "6": {"label": "d_hydrogen", "atom_type": "H0"}}

>  <level_of_theory>  (1) 
wb97xd/def2tzvp

>  <lot_method>  (1) 
wb97xd

>  <lot_basis>  (1) 
def2tzvp

>  <spin_multiplicity>  (1) 
1.0

>  <optical_isomers>  (1) 
1.0

>  <modes>  (1) 
IdealGasTranslation(mass=(44.0626, 'amu')),         NonlinearRotor(             inertia = ([17.0625, 59.5808, 67.2958

>  <frequency_value>  (1) 
unknown

>  <frequency_units>  (1) 
unknown

>  <frequency_list>  (1) 
unknown

>  <arkane_path>  (1) 
/home/calvin/Dropbox/PersonalFolders/Calvin/HAb_Converged/rxn_940/output/Species/rxn_940_CCC/arkane/output.py

>  <path_exists>  (1) 
True

>  <E0_value>  (1) 
-312559.7664121831

>  <E0_units>  (1) 
kJ/mol

>  <thermo_class>  (1) 
NASA

>  <Cp0_value>  (1) 
33.257888

>  <Cp0_units>  (1) 
J/(mol*K)

>  <CpInf_value>  (1) 
257.748632

>  <CpInf_units>  (1) 
J/(mol*K)

>  <Tmin_value>  (1) 
10.0

>  <Tmin_units>  (1) 
K

>  <Tmax_value>  (1) 
3000.0

>  <Tmax_units>  (1) 
K

>  <polynomials>  (1) 
[{"name": "polynomial1", "class": "NASAPolynomial", "Tmin_value": 10.0, "Tmin_units": "K", "Tmax_value": 577.4310568776192, "Tmax_units": "K", "coeffs": [3.9747269033817734, 0.0011347804367172543, 7.533889062875609e-05, -1.0470498139729524e-07, 4.699078499553375e-11, -37592254.8773633, 6.773591698117238]}, {"name": "polynomial2", "class": "NASAPolynomial", "Tmin_value": 577.4310568776192, "Tmin_units": "K", "Tmax_value": 3000.0, "Tmax_units": "K", "coeffs": [-1.3041055241664254, 0.03770227026025092, -1.9652378532074013e-05, 4.9654907444475164e-09, -4.909963524622396e-13, -37591645.24138486, 29.34198158192454]}]

>  <H298_value>  (1) 
-74700.16503809701

>  <H298_units>  (1) 
kcal/mol

>  <S298_value>  (1) 
64.12787959081382

>  <S298_units>  (1) 
cal/(mol*K)

>  <Cp_T_value_list>  (1) 
[17.187849905588877, 21.82888089347945, 26.282080105357306, 30.30750880664003, 37.00458219733553, 42.16907955247373, 50.28489012355217, 54.3677942411287, 56.31048938168173]

>  <Cp_T_units>  (1) 
cal/(mol*K)

>  <T_list>  (1) 
[300.0, 400.0, 500.0, 600.0, 800.0, 1000.0, 1500.0, 2000.0, 2400.0]

>  <T_units>  (1) 
K

>  <yaml_path>  (1) 
/home/calvin/Dropbox/PersonalFolders/Calvin/HAb_Converged/rxn_940/output/Species/rxn_940_CCC/rxn_940_CCC.yml

>  <frequencies_cm1>  (1) 
[219.27657523823999, 274.69314677064, 369.88329727648, 749.53831466332, 878.21188558948, 908.3991530561998, 929.9271520343999, 1065.0968910732797, 1172.11199030016, 1205.9799618984, 1309.06714552224, 1359.46395078572, 1398.3379546822398, 1410.31397708032, 1476.4087107853202, 1480.39842925624, 1483.440503753, 1494.09119798432, 1498.5410044716796, 3005.39792816588, 3007.40308787932, 3010.35589156692, 3037.8787687294803, 3071.65746951856, 3081.94421352792, 3083.3450785332, 3086.08500567588]

>  <ZPE_kJmol>  (1) 
269.5620865819488

>  <E_elec_kJmol>  (1) 
-312829.32849876507

>  <E0_minus_Eelec_plus_ZPE_kJmol>  (1) 
0.0

>  <rxn>  (1) 
rxn_940

>  <species_type>  (1) 
r1

>  <species_folder>  (1) 
rxn_940_CCC

>  <frequencies_cm1_list>  (1) 
[219.27657523823999, 274.69314677064, 369.88329727648, 749.53831466332, 878.21188558948, 908.3991530561998, 929.9271520343999, 1065.0968910732797, 1172.11199030016, 1205.9799618984, 1309.06714552224, 1359.46395078572, 1398.3379546822398, 1410.31397708032, 1476.4087107853202, 1480.39842925624, 1483.440503753, 1494.09119798432, 1498.5410044716796, 3005.39792816588, 3007.40308787932, 3010.35589156692, 3037.8787687294803, 3071.65746951856, 3081.94421352792, 3083.3450785332, 3086.08500567588]

>  <E0_kJmol>  (1) 
-312560

>  <H298_kJmol>  (1) 
-312545

$$$$

     RDKit          3D

 13 12  0  0  0  0  0  0  0  0999 V2000
    0.4927    1.2658    1.0199 C   0  0  0  0  0  0  0  0  0  1  0  0
   -0.1535    0.4132   -0.0462 C   0  0  0  0  0  0  0  0  0  2  0  0
    0.7044   -0.0864   -1.1310 C   0  0  0  0  0  0  0  0  0  3  0  0
    1.9741    0.2557   -1.3474 C   0  0  0  0  0  0  0  0  0  4  0  0
   -1.3161   -0.8192    0.5777 S   0  0  0  0  0  0  0  0  0  5  0  0
    1.2217    0.6904    1.5981 H   0  0  0  0  0  0  0  0  0  6  0  0
    1.0120    2.1165    0.5728 H   0  0  0  0  0  0  0  0  0  7  0  0
   -0.2600    1.6477    1.7088 H   0  0  0  0  0  0  0  0  0  8  0  0
    0.2227   -0.7785   -1.8149 H   0  0  0  0  0  0  0  0  0  9  0  0
    2.5182   -0.1451   -2.1926 H   0  0  0  0  0  0  0  0  0 10  0  0
    2.5131    0.9305   -0.6939 H   0  0  0  0  0  0  0  0  0 11  0  0
   -0.4131   -1.6990    1.0392 H   0  0  0  0  0  0  0  0  0 12  0  0
   -0.8584    1.0870   -0.5334 H   0  0  0  0  0  0  0  0  0 13  0  0
  1  8  1  0
  1  7  1  0
  1  6  1  0
  1  2  1  0
  2 13  1  0
  2  5  1  0
  2  3  1  0
  3  4  1  0
  3  9  1  0
  4 10  1  0
  4 11  1  0
  5 12  1  0
M  END
>  <rmg_smiles>  (2) 
[CH2][CH]C(S)C

>  <rmg_adjacency_list>  (2) 
1  S u0 p2 c0 {2,S} {13,S}
2  C u0 p0 c0 {1,S} {3,S} {4,S} {6,S}
3  C u0 p0 c0 {2,S} {7,S} {8,S} {9,S}
4  C u0 p0 c0 {2,S} {5,S} {10,S}
5  C u0 p0 c0 {4,S} {11,S} {12,S}
6  H u0 p0 c0 {2,S}
7  H u0 p0 c0 {3,S}
8  H u0 p0 c0 {3,S}
9  H u0 p0 c0 {3,S}
10 H u0 p0 c0 {4,S}
11 H u0 p0 c0 {5,S}
12 H u0 p0 c0 {5,S}
13 H u0 p0 c0 {1,S}


>  <multiplicity>  (2) 
1

>  <reaction>  (2) 
rxn_940

>  <type>  (2) 
r2h

>  <role_mapnums>  (2) 
{"r2h_a": 2, "r2h_h": 13}

>  <role_mapidx>  (2) 
{"r2h_a": 1, "r2h_h": 12}

>  <ordered_mapped_smiles>  (2) 
[C:1]([C:2]([CH:3]([CH:4]([H:10])[H:11])[H:9])([S:5][H:12])[H:13])([H:6])([H:7])[H:8]

>  <mol_properties>  (2) 
{"1": {"label": "acceptor", "atom_type": "Cs"}, "12": {"label": "a_hydrogen", "atom_type": "H0"}}

>  <level_of_theory>  (2) 
wb97xd/def2tzvp

>  <lot_method>  (2) 
wb97xd

>  <lot_basis>  (2) 
def2tzvp

>  <spin_multiplicity>  (2) 
1.0

>  <optical_isomers>  (2) 
2.0

>  <modes>  (2) 
IdealGasTranslation(mass=(88.0347, 'amu')),         NonlinearRotor(             inertia = ([80.9896, 186.939, 240.36

>  <frequency_value>  (2) 
unknown

>  <frequency_units>  (2) 
unknown

>  <frequency_list>  (2) 
unknown

>  <arkane_path>  (2) 
/home/calvin/Dropbox/PersonalFolders/Calvin/HAb_Converged/rxn_940/output/Species/rxn_940_CC[C=C]S/arkane/output.py

>  <path_exists>  (2) 
True

>  <E0_value>  (2) 
-1457993.219803836

>  <E0_units>  (2) 
kJ/mol

>  <thermo_class>  (2) 
NASA

>  <Cp0_value>  (2) 
33.257888

>  <Cp0_units>  (2) 
J/(mol*K)

>  <CpInf_value>  (2) 
307.635464

>  <CpInf_units>  (2) 
J/(mol*K)

>  <Tmin_value>  (2) 
10.0

>  <Tmin_units>  (2) 
K

>  <Tmax_value>  (2) 
3000.0

>  <Tmax_units>  (2) 
K

>  <polynomials>  (2) 
[{"name": "polynomial1", "class": "NASAPolynomial", "Tmin_value": 10.0, "Tmin_units": "K", "Tmax_value": 295.7227912497842, "Tmax_units": "K", "coeffs": [3.859964156764265, 0.01144860889918731, 0.0001493029899500801, -3.9039348716992893e-07, 3.358044146618703e-10, -175356080.14565533, 11.069034930037732]}, {"name": "polynomial2", "class": "NASAPolynomial", "Tmin_value": 295.7227912497842, "Tmin_units": "K", "Tmax_value": 3000.0, "Tmax_units": "K", "coeffs": [1.2850875538289555, 0.046276930240981576, -2.7357704114677986e-05, 7.864783684789184e-09, -8.783951656354052e-13, -175355927.85604125, 20.354264054524194]}]

>  <H298_value>  (2) 
-348464.0450906466

>  <H298_units>  (2) 
kcal/mol

>  <S298_value>  (2) 
80.12210228638097

>  <S298_units>  (2) 
cal/(mol*K)

>  <Cp_T_value_list>  (2) 
[25.657235309186788, 31.595562401016796, 36.787812405776, 41.308907051164105, 48.616370543623205, 54.03354017598102, 62.08513628914328, 66.11849050718591, 68.25869648313012]

>  <Cp_T_units>  (2) 
cal/(mol*K)

>  <T_list>  (2) 
[300.0, 400.0, 500.0, 600.0, 800.0, 1000.0, 1500.0, 2000.0, 2400.0]

>  <T_units>  (2) 
K

>  <yaml_path>  (2) 
/home/calvin/Dropbox/PersonalFolders/Calvin/HAb_Converged/rxn_940/output/Species/rxn_940_CC[C=C]S/rxn_940_CCC=CS.yml

>  <frequencies_cm1>  (2) 
[112.52242145352, 239.03975898919998, 283.2974793766, 286.77904093384, 324.26591379572, 340.0531130464, 516.9535218749198, 611.3059001717199, 707.99305347732, 859.67102522548, 891.12181799108, 956.0216962503999, 997.40214978872, 1034.16112220668, 1059.6582386998398, 1092.5304974266799, 1167.99179910816, 1255.42912318772, 1324.7582069784398, 1338.95226563488, 1400.5765918965599, 1439.5192656462798, 1479.7323316801999, 1488.1993245797596, 1707.24242231712, 2690.2788388163995, 3016.12415923572, 3026.0744209644, 3087.1562553858, 3110.68941407744, 3126.04399325296, 3140.3273227185596, 3212.2246590189598]

>  <ZPE_kJmol>  (2) 
283.0610419775438

>  <E_elec_kJmol>  (2) 
-1458276.2808458137

>  <E0_minus_Eelec_plus_ZPE_kJmol>  (2) 
0.0

>  <rxn>  (2) 
rxn_940

>  <species_type>  (2) 
p0

>  <species_folder>  (2) 
rxn_940_CC[C=C]S

>  <frequencies_cm1_list>  (2) 
[112.52242145352, 239.03975898919998, 283.2974793766, 286.77904093384, 324.26591379572, 340.0531130464, 516.9535218749198, 611.3059001717199, 707.99305347732, 859.67102522548, 891.12181799108, 956.0216962503999, 997.40214978872, 1034.16112220668, 1059.6582386998398, 1092.5304974266799, 1167.99179910816, 1255.42912318772, 1324.7582069784398, 1338.95226563488, 1400.5765918965599, 1439.5192656462798, 1479.7323316801999, 1488.1993245797596, 1707.24242231712, 2690.2788388163995, 3016.12415923572, 3026.0744209644, 3087.1562553858, 3110.68941407744, 3126.04399325296, 3140.3273227185596, 3212.2246590189598]

>  <E0_kJmol>  (2) 
-1.45799e+06

>  <H298_kJmol>  (2) 
-1.45797e+06

$$$$

     RDKit          3D

 23 21  0  0  0  0  0  0  0  0999 V2000
    0.9913    0.3722    1.6884 C   0  0  0  0  0  0  0  0  0  1  0  0
    0.3451   -0.4803    0.6222 C   0  0  0  0  0  0  0  0  0  2  0  0
    1.2030   -0.9800   -0.4625 C   0  0  0  0  0  0  0  0  0  3  0  0
    2.4727   -0.6378   -0.6789 C   0  0  0  0  0  0  0  0  0  4  0  0
   -0.8175   -1.7127    1.2461 S   0  0  0  0  0  0  0  0  0  5  0  0
    1.7203   -0.2031    2.2665 H   0  0  0  0  0  0  0  0  0  6  0  0
    1.5106    1.2230    1.2412 H   0  0  0  0  0  0  0  0  0  7  0  0
    0.2387    0.7541    2.3773 H   0  0  0  0  0  0  0  0  0  8  0  0
    0.7213   -1.6720   -1.1465 H   0  0  0  0  0  0  0  0  0  9  0  0
    3.0168   -1.0386   -1.5242 H   0  0  0  0  0  0  0  0  0 10  0  0
    3.0117    0.0369   -0.0254 H   0  0  0  0  0  0  0  0  0 11  0  0
    0.0855   -2.5926    1.7077 H   0  0  0  0  0  0  0  0  0 12  0  0
   -1.6808    0.4697   -1.8873 C   0  0  0  0  0  0  0  0  0 13  0  0
   -1.3120    1.2314   -0.6470 C   0  0  0  0  0  3  0  0  0 14  0  0
   -0.4320    2.4345   -0.8292 C   0  0  0  0  0  0  0  0  0 15  0  0
   -0.7875    0.2066   -2.4599 H   0  0  0  0  0  0  0  0  0 16  0  0
   -2.3225    1.0697   -2.5428 H   0  0  0  0  0  0  0  0  0 17  0  0
   -2.2159   -0.4508   -1.6488 H   0  0  0  0  0  0  0  0  0 18  0  0
   -0.4959    0.3236    0.0409 H   0  0  0  0  0  0  0  0  0 19  0  0
   -2.1328    1.3720    0.0555 H   0  0  0  0  0  0  0  0  0 20  0  0
   -0.9206    3.1899   -1.4561 H   0  0  0  0  0  0  0  0  0 21  0  0
   -0.1872    2.9050    0.1240 H   0  0  0  0  0  0  0  0  0 22  0  0
    0.5027    2.1578   -1.3251 H   0  0  0  0  0  0  0  0  0 23  0  0
  1  7  1  0
  1  8  1  0
  1  6  1  0
  1  2  1  0
  2  3  1  0
  2 19  1  0
  2  5  1  0
  3  4  1  0
  3  9  1  0
  4 10  1  0
  4 11  1  0
  5 12  1  0
 13 17  1  0
 13 18  1  0
 13 14  1  0
 13 16  1  0
 14 15  1  0
 14 20  1  0
 15 23  1  0
 15 22  1  0
 15 21  1  0
M  RAD  1  14   2
M  END
>  <rmg_smiles>  (3) 
[CH2][CH]C(S)C.C[CH]C

>  <rmg_adjacency_list>  (3) 
multiplicity 2
1  S u0 p2 c0 {2,S} {23,S}
2  C u0 p0 c0 {1,S} {3,S} {7,S} {9,S}
3  C u0 p0 c0 {2,S} {10,S} {11,S} {12,S}
4  C u0 p0 c0 {6,S} {13,S} {14,S} {15,S}
5  C u0 p0 c0 {6,S} {16,S} {17,S} {18,S}
6  C u1 p0 c0 {4,S} {5,S} {19,S}
7  C u0 p0 c0 {2,S} {8,S} {20,S}
8  C u0 p0 c0 {7,S} {21,S} {22,S}
9  H u0 p0 c0 {2,S}
10 H u0 p0 c0 {3,S}
11 H u0 p0 c0 {3,S}
12 H u0 p0 c0 {3,S}
13 H u0 p0 c0 {4,S}
14 H u0 p0 c0 {4,S}
15 H u0 p0 c0 {4,S}
16 H u0 p0 c0 {5,S}
17 H u0 p0 c0 {5,S}
18 H u0 p0 c0 {5,S}
19 H u0 p0 c0 {6,S}
20 H u0 p0 c0 {7,S}
21 H u0 p0 c0 {8,S}
22 H u0 p0 c0 {8,S}
23 H u0 p0 c0 {1,S}


>  <multiplicity>  (3) 
2

>  <reaction>  (3) 
rxn_940

>  <type>  (3) 
ts

>  <role_mapnums>  (3) 
{"*2": 19, "*1": 14, "*3": 2, "*0": 5, "*4": 13}

>  <role_mapidx>  (3) 
{"*2": 18, "*1": 13, "*3": 1, "*0": 4, "*4": 12}

>  <ordered_mapped_smiles>  (3) 
[C:1]([C:2]([CH:3]([CH:4]([H:10])[H:11])[H:9])([S:5][H:12])[H:19])([H:6])([H:7])[H:8].[C:13]([C:14]([C:15]([H:21])([H:22])[H:23])[H:20])([H:16])([H:17])[H:18]

>  <mol_properties>  (3) 
{"1": {"label": "*3", "atom_type": "Cs"}, "4": {"label": "*0", "atom_type": "S2s"}, "12": {"label": "*4", "atom_type": "Cs"}, "13": {"label": "*1", "atom_type": "Cs"}, "18": {"label": "*2", "atom_type": "H0"}}

>  <level_of_theory>  (3) 
wb97xd/def2tzvp

>  <lot_method>  (3) 
wb97xd

>  <lot_basis>  (3) 
def2tzvp

>  <spin_multiplicity>  (3) 
2.0

>  <optical_isomers>  (3) 
2.0

>  <modes>  (3) 
IdealGasTranslation(mass=(131.089, 'amu')),         NonlinearRotor(             inertia = ([313.126, 453.031, 547.842

>  <frequency_value>  (3) 
-1640.22

>  <frequency_units>  (3) 
cm^-1

>  <frequency_list>  (3) 
unknown

>  <arkane_path>  (3) 
/home/calvin/Dropbox/PersonalFolders/Calvin/HAb_Converged/rxn_940/output/rxns/TS0/arkane/output.py

>  <path_exists>  (3) 
True

>  <E0_value>  (3) 
-1768810.0

>  <E0_units>  (3) 
kJ/mol

>  <thermo_class>  (3) 
unknown

>  <Cp0_value>  (3) 
unknown

>  <Cp0_units>  (3) 
unknown

>  <CpInf_value>  (3) 
unknown

>  <CpInf_units>  (3) 
unknown

>  <Tmin_value>  (3) 
unknown

>  <Tmin_units>  (3) 
unknown

>  <Tmax_value>  (3) 
unknown

>  <Tmax_units>  (3) 
unknown

>  <polynomials>  (3) 
unknown

>  <H298_value>  (3) 
unknown

>  <H298_units>  (3) 
unknown

>  <S298_value>  (3) 
unknown

>  <S298_units>  (3) 
unknown

>  <Cp_T_value_list>  (3) 
unknown

>  <Cp_T_units>  (3) 
unknown

>  <T_list>  (3) 
unknown

>  <T_units>  (3) 
unknown

>  <yaml_path>  (3) 
unknown

>  <frequencies_cm1>  (3) 
unknown

>  <ZPE_kJmol>  (3) 
unknown

>  <E_elec_kJmol>  (3) 
unknown

>  <E0_minus_Eelec_plus_ZPE_kJmol>  (3) 
unknown

>  <rxn>  (3) 
unknown

>  <species_type>  (3) 
unknown

>  <species_folder>  (3) 
unknown

>  <frequencies_cm1_list>  (3) 
[]

>  <ts_imag_freq_cm1>  (3) 
-1660.1386

>  <ts_freq_out_path>  (3) 
/home/calvin/Dropbox/PersonalFolders/Calvin/HAb_Converged/rxn_940/output/rxns/TS0/geometry/freq.out

>  <E0_kJmol>  (3) 
-1.76881e+06

>  <H298_kJmol>  (3) 
unknown

$$$$

     RDKit          3D

 10  9  0  0  0  0  0  0  0  0999 V2000
    1.2930    0.1441    0.3288 C   0  0  0  0  0  0  0  0  0  1  0  0
   -0.0374   -0.1647    0.9100 C   0  0  0  0  0  3  0  0  0  2  0  0
   -1.2664    0.4569    0.3567 C   0  0  0  0  0  0  0  0  0  3  0  0
    1.4384    1.2242    0.2174 H   0  0  0  0  0  0  0  0  0  4  0  0
    2.1077   -0.2477    0.9385 H   0  0  0  0  0  0  0  0  0  5  0  0
    1.4057   -0.2836   -0.6789 H   0  0  0  0  0  0  0  0  0  6  0  0
   -0.1309   -0.9912    1.6030 H   0  0  0  0  0  0  0  0  0  7  0  0
   -1.5005    0.0716   -0.6471 H   0  0  0  0  0  0  0  0  0  8  0  0
   -2.1382    0.2713    0.9849 H   0  0  0  0  0  0  0  0  0  9  0  0
   -1.1497    1.5406    0.2456 H   0  0  0  0  0  0  0  0  0 10  0  0
  1  5  1  0
  1  4  1  0
  1  6  1  0
  1  2  1  0
  2  7  1  0
  2  3  1  0
  3  9  1  0
  3 10  1  0
  3  8  1  0
M  RAD  1   2   2
M  END
>  <rmg_smiles>  (4) 
C[CH]C

>  <rmg_adjacency_list>  (4) 
multiplicity 2
1  C u0 p0 c0 {3,S} {4,S} {5,S} {6,S}
2  C u0 p0 c0 {3,S} {7,S} {8,S} {9,S}
3  C u1 p0 c0 {1,S} {2,S} {10,S}
4  H u0 p0 c0 {1,S}
5  H u0 p0 c0 {1,S}
6  H u0 p0 c0 {1,S}
7  H u0 p0 c0 {2,S}
8  H u0 p0 c0 {2,S}
9  H u0 p0 c0 {2,S}
10 H u0 p0 c0 {3,S}


>  <multiplicity>  (4) 
2

>  <reaction>  (4) 
rxn_940

>  <type>  (4) 
r1

>  <role_mapnums>  (4) 
{}

>  <role_mapidx>  (4) 
{}

>  <ordered_mapped_smiles>  (4) 
[C:1]([C:2]([C:3]([H:8])([H:9])[H:10])[H:7])([H:4])([H:5])[H:6]

>  <level_of_theory>  (4) 
wb97xd/def2tzvp

>  <lot_method>  (4) 
wb97xd

>  <lot_basis>  (4) 
def2tzvp

>  <spin_multiplicity>  (4) 
2.0

>  <optical_isomers>  (4) 
1.0

>  <modes>  (4) 
IdealGasTranslation(mass=(43.0548, 'amu')),         NonlinearRotor(             inertia = ([13.4945, 59.9891, 67.2321

>  <frequency_value>  (4) 
unknown

>  <frequency_units>  (4) 
unknown

>  <frequency_list>  (4) 
unknown

>  <arkane_path>  (4) 
/home/calvin/Dropbox/PersonalFolders/Calvin/HAb_Converged/rxn_940/output/Species/rxn_940_C[CH]C/arkane/output.py

>  <path_exists>  (4) 
True

>  <E0_value>  (4) 
-310845.2184059608

>  <E0_units>  (4) 
kJ/mol

>  <thermo_class>  (4) 
NASA

>  <Cp0_value>  (4) 
33.257888

>  <Cp0_units>  (4) 
J/(mol*K)

>  <CpInf_value>  (4) 
232.805216

>  <CpInf_units>  (4) 
J/(mol*K)

>  <Tmin_value>  (4) 
10.0

>  <Tmin_units>  (4) 
K

>  <Tmax_value>  (4) 
3000.0

>  <Tmax_units>  (4) 
K

>  <polynomials>  (4) 
[{"name": "polynomial1", "class": "NASAPolynomial", "Tmin_value": 10.0, "Tmin_units": "K", "Tmax_value": 447.8128792552529, "Tmax_units": "K", "coeffs": [3.752012635379411, 0.026641862649172638, -7.746058003612534e-05, 2.1389576411497674e-07, -1.844633782932518e-10, -37386043.96321184, 8.05688024181999]}, {"name": "polynomial2", "class": "NASAPolynomial", "Tmin_value": 447.8128792552529, "Tmin_units": "K", "Tmax_value": 3000.0, "Tmax_units": "K", "coeffs": [0.3456331898922003, 0.0329396549778818, -1.7732866616299737e-05, 4.6556958792141865e-09, -4.78902486015414e-13, -37385496.94179907, 24.455396824893292]}]

>  <H298_value>  (4) 
-74289.9090718394

>  <H298_units>  (4) 
kcal/mol

>  <S298_value>  (4) 
70.4573159165227

>  <S298_units>  (4) 
cal/(mol*K)

>  <Cp_T_value_list>  (4) 
[17.99246870913784, 21.823762730245537, 25.70307457878351, 29.150647616604275, 34.84741547055869, 39.20602419681299, 45.99328941377369, 49.43494906715023, 51.132806782188474]

>  <Cp_T_units>  (4) 
cal/(mol*K)

>  <T_list>  (4) 
[300.0, 400.0, 500.0, 600.0, 800.0, 1000.0, 1500.0, 2000.0, 2400.0]

>  <T_units>  (4) 
K

>  <yaml_path>  (4) 
/home/calvin/Dropbox/PersonalFolders/Calvin/HAb_Converged/rxn_940/output/Species/rxn_940_C[CH]C/rxn_940_CCHC.yml

>  <frequencies_cm1>  (4) 
[105.22281605836, 112.68722910119999, 345.60850417028, 388.99411742204, 888.91751570336, 934.4593623456, 940.8456586931999, 1017.3988110405598, 1144.8637925504, 1173.26564383392, 1356.01672415508, 1400.16457277736, 1405.7130969159198, 1454.7502390860398, 1462.58546933616, 1465.42840125864, 1476.53231652108, 2938.8637074004, 2942.7366871208797, 3008.0211165581195, 3008.4194017066793, 3085.04122390724, 3085.8858631016, 3161.75918390228]

>  <ZPE_kJmol>  (4) 
229.10994966023972

>  <E_elec_kJmol>  (4) 
-311074.328355621

>  <E0_minus_Eelec_plus_ZPE_kJmol>  (4) 
0.0

>  <rxn>  (4) 
rxn_940

>  <species_type>  (4) 
p1

>  <species_folder>  (4) 
rxn_940_C[CH]C

>  <frequencies_cm1_list>  (4) 
[105.22281605836, 112.68722910119999, 345.60850417028, 388.99411742204, 888.91751570336, 934.4593623456, 940.8456586931999, 1017.3988110405598, 1144.8637925504, 1173.26564383392, 1356.01672415508, 1400.16457277736, 1405.7130969159198, 1454.7502390860398, 1462.58546933616, 1465.42840125864, 1476.53231652108, 2938.8637074004, 2942.7366871208797, 3008.0211165581195, 3008.4194017066793, 3085.04122390724, 3085.8858631016, 3161.75918390228]

>  <E0_kJmol>  (4) 
-310845

>  <H298_kJmol>  (4) 
-310829

$$$$

     RDKit          3D

 12 11  0  0  0  0  0  0  0  0999 V2000
   -0.9951    0.1196   -0.8321 C   0  0  0  0  0  0  0  0  0  1  0  0
   -0.3760    0.2571    0.5231 C   0  0  0  0  0  3  0  0  0  2  0  0
    0.9330   -0.1537    0.7810 C   0  0  0  0  0  0  0  0  0  3  0  0
    1.5987   -0.1880    1.9734 C   0  0  0  0  0  0  0  0  0  4  0  0
   -1.4483    0.9449    1.7152 S   0  0  0  0  0  0  0  0  0  5  0  0
   -1.9164   -0.4696   -0.7936 H   0  0  0  0  0  0  0  0  0  6  0  0
   -1.2565    1.0958   -1.2506 H   0  0  0  0  0  0  0  0  0  7  0  0
   -0.3088   -0.3780   -1.5170 H   0  0  0  0  0  0  0  0  0  8  0  0
    1.4783   -0.4898   -0.0971 H   0  0  0  0  0  0  0  0  0  9  0  0
    2.6278   -0.5153    2.0142 H   0  0  0  0  0  0  0  0  0 10  0  0
    1.1316    0.0690    2.9151 H   0  0  0  0  0  0  0  0  0 11  0  0
   -0.5306    1.3052    2.6211 H   0  0  0  0  0  0  0  0  0 12  0  0
  1  8  1  0
  1  7  1  0
  1  6  1  0
  1  2  1  0
  2  5  1  0
  2  3  1  0
  3  4  1  0
  3  9  1  0
  4 10  1  0
  4 11  1  0
  5 12  1  0
M  RAD  1   2   2
M  END
>  <rmg_smiles>  (5) 
[CH2][CH][C](S)C

>  <rmg_adjacency_list>  (5) 
multiplicity 2
1  S u0 p2 c0 {3,S} {12,S}
2  C u0 p0 c0 {3,S} {6,S} {7,S} {8,S}
3  C u1 p0 c0 {1,S} {2,S} {4,S}
4  C u0 p0 c0 {3,S} {5,S} {9,S}
5  C u0 p0 c0 {4,S} {10,S} {11,S}
6  H u0 p0 c0 {2,S}
7  H u0 p0 c0 {2,S}
8  H u0 p0 c0 {2,S}
9  H u0 p0 c0 {4,S}
10 H u0 p0 c0 {5,S}
11 H u0 p0 c0 {5,S}
12 H u0 p0 c0 {1,S}


>  <multiplicity>  (5) 
2

>  <reaction>  (5) 
rxn_940

>  <type>  (5) 
r2

>  <role_mapnums>  (5) 
{}

>  <role_mapidx>  (5) 
{}

>  <ordered_mapped_smiles>  (5) 
[C:1]([C:2]([CH:3]([CH:4]([H:10])[H:11])[H:9])[S:5][H:12])([H:6])([H:7])[H:8]

>  <level_of_theory>  (5) 
wb97xd/def2tzvp

>  <lot_method>  (5) 
wb97xd

>  <lot_basis>  (5) 
def2tzvp

>  <spin_multiplicity>  (5) 
2.0

>  <optical_isomers>  (5) 
2.0

>  <modes>  (5) 
IdealGasTranslation(mass=(87.0269, 'amu')),         NonlinearRotor(             inertia = ([99.3628, 146.633, 242.323

>  <frequency_value>  (5) 
unknown

>  <frequency_units>  (5) 
unknown

>  <frequency_list>  (5) 
unknown

>  <arkane_path>  (5) 
/home/calvin/Dropbox/PersonalFolders/Calvin/HAb_Converged/rxn_940/output/Species/rxn_940_C[C][C=C]S/arkane/output.py

>  <path_exists>  (5) 
True

>  <E0_value>  (5) 
-1456353.608765125

>  <E0_units>  (5) 
kJ/mol

>  <thermo_class>  (5) 
NASA

>  <Cp0_value>  (5) 
33.257888

>  <Cp0_units>  (5) 
J/(mol*K)

>  <CpInf_value>  (5) 
282.692048

>  <CpInf_units>  (5) 
J/(mol*K)

>  <Tmin_value>  (5) 
10.0

>  <Tmin_units>  (5) 
K

>  <Tmax_value>  (5) 
3000.0

>  <Tmax_units>  (5) 
K

>  <polynomials>  (5) 
[{"name": "polynomial1", "class": "NASAPolynomial", "Tmin_value": 10.0, "Tmin_units": "K", "Tmax_value": 205.80991427712218, "Tmax_units": "K", "coeffs": [3.8440716151485463, 0.015174752734817191, 0.00016959478629680551, -6.246323659510997e-07, 7.670877214797748e-10, -175158884.09466982, 11.74554198751139]}, {"name": "polynomial2", "class": "NASAPolynomial", "Tmin_value": 205.80991427712218, "Tmin_units": "K", "Tmax_value": 3000.0, "Tmax_units": "K", "coeffs": [2.4663335557323998, 0.041952173821737604, -2.5570291046252858e-05, 7.56538962079546e-09, -8.66016918218639e-13, -175158827.38533536, 16.214373622623416]}]

>  <H298_value>  (5) 
-348072.01766260894

>  <H298_units>  (5) 
kcal/mol

>  <S298_value>  (5) 
82.85997438116188

>  <S298_units>  (5) 
cal/(mol*K)

>  <Cp_T_value_list>  (5) 
[25.730171503702618, 31.036134336876824, 35.65325747623649, 39.653158562343805, 46.06711368365225, 50.768335011708174, 57.649692747325474, 61.11924507378844, 63.030727529768605]

>  <Cp_T_units>  (5) 
cal/(mol*K)

>  <T_list>  (5) 
[300.0, 400.0, 500.0, 600.0, 800.0, 1000.0, 1500.0, 2000.0, 2400.0]

>  <T_units>  (5) 
K

>  <yaml_path>  (5) 
/home/calvin/Dropbox/PersonalFolders/Calvin/HAb_Converged/rxn_940/output/Species/rxn_940_C[C][C=C]S/rxn_940_CCC=CS.yml

>  <frequencies_cm1>  (5) 
[98.94639147588, 151.417026306, 232.0010990362, 298.89927002364, 330.48053551031995, 349.21367146328, 522.0762929236399, 588.7821883221199, 625.9600468445999, 795.4921804247599, 896.58107132048, 946.2019072428, 949.3950554165998, 1028.4615243910798, 1048.7259980703998, 1178.03819863132, 1246.9003274202798, 1314.9315509855198, 1402.4787468301997, 1441.74416888996, 1459.15884366148, 1479.79413454808, 1527.8149628908398, 2701.01880385688, 2997.3017524735997, 3049.97839686332, 3100.25159639104, 3118.39417160648, 3137.12730755944, 3226.2539100277195]

>  <ZPE_kJmol>  (5) 
246.69290464792437

>  <E_elec_kJmol>  (5) 
-1456600.301669773

>  <E0_minus_Eelec_plus_ZPE_kJmol>  (5) 
0.0

>  <rxn>  (5) 
rxn_940

>  <species_type>  (5) 
r0

>  <species_folder>  (5) 
rxn_940_C[C][C=C]S

>  <frequencies_cm1_list>  (5) 
[98.94639147588, 151.417026306, 232.0010990362, 298.89927002364, 330.48053551031995, 349.21367146328, 522.0762929236399, 588.7821883221199, 625.9600468445999, 795.4921804247599, 896.58107132048, 946.2019072428, 949.3950554165998, 1028.4615243910798, 1048.7259980703998, 1178.03819863132, 1246.9003274202798, 1314.9315509855198, 1402.4787468301997, 1441.74416888996, 1459.15884366148, 1479.79413454808, 1527.8149628908398, 2701.01880385688, 2997.3017524735997, 3049.97839686332, 3100.25159639104, 3118.39417160648, 3137.12730755944, 3226.2539100277195]

>  <E0_kJmol>  (5) 
-1.45635e+06

>  <H298_kJmol>  (5) 
-1.45633e+06

$$$$
