
     RDKit          3D

 12 11  0  0  0  0  0  0  0  0999 V2000
    0.5273   -1.0183   -1.1397 C   0  0  0  0  0  0  0  0  0  1  0  0
    0.0546   -0.9683    0.1102 C   0  0  0  0  0  0  0  0  0  2  0  0
   -0.2344    0.2435    0.8630 C   0  0  0  0  0  0  0  0  0  3  0  0
   -0.3536    1.5576    0.1348 C   0  0  0  0  0  0  0  0  0  4  0  0
    0.7019   -0.1231   -1.7231 H   0  0  0  0  0  0  0  0  0  5  0  0
    0.7443   -1.9652   -1.6165 H   0  0  0  0  0  0  0  0  0  6  0  0
   -0.0919   -1.9035    0.6437 H   0  0  0  0  0  0  0  0  0  7  0  0
    0.6655    0.3817    1.4621 H   0  0  0  0  0  0  0  0  0  8  0  0
   -0.9716    0.0976    1.6524 H   0  0  0  0  0  0  0  0  0  9  0  0
   -1.1864    1.5380   -0.5743 H   0  0  0  0  0  0  0  0  0 10  0  0
    0.5576    1.7843   -0.4211 H   0  0  0  0  0  0  0  0  0 11  0  0
   -0.5221    2.3719    0.8385 H   0  0  0  0  0  0  0  0  0 12  0  0
  1  5  1  0
  1  6  1  0
  1  2  1  0
  2  7  1  0
  2  3  1  0
  3  4  1  0
  3  9  1  0
  3  8  1  0
  4 12  1  0
  4 10  1  0
  4 11  1  0
M  END
>  <rmg_smiles>  (1) 
[CH2][CH]CC

>  <rmg_adjacency_list>  (1) 
1  C u0 p0 c0 {2,S} {3,S} {5,S} {6,S}
2  C u0 p0 c0 {1,S} {7,S} {8,S} {9,S}
3  C u0 p0 c0 {1,S} {4,S} {10,S}
4  C u0 p0 c0 {3,S} {11,S} {12,S}
5  H u0 p0 c0 {1,S}
6  H u0 p0 c0 {1,S}
7  H u0 p0 c0 {2,S}
8  H u0 p0 c0 {2,S}
9  H u0 p0 c0 {2,S}
10 H u0 p0 c0 {3,S}
11 H u0 p0 c0 {4,S}
12 H u0 p0 c0 {4,S}


>  <multiplicity>  (1) 
1

>  <reaction>  (1) 
rxn_38

>  <type>  (1) 
r1h

>  <role_mapnums>  (1) 
{"r1h_a": 3, "r1h_h": 8}

>  <role_mapidx>  (1) 
{"r1h_a": 2, "r1h_h": 7}

>  <ordered_mapped_smiles>  (1) 
[CH:1]([CH:2]([C:3]([C:4]([H:10])([H:11])[H:12])([H:8])[H:9])[H:7])([H:5])[H:6]

>  <mol_properties>  (1) 
{"2": {"label": "donator", "atom_type": "Cs"}, "7": {"label": "d_hydrogen", "atom_type": "H0"}}

>  <level_of_theory>  (1) 
wb97xd/def2tzvp

>  <lot_method>  (1) 
wb97xd

>  <lot_basis>  (1) 
def2tzvp

>  <spin_multiplicity>  (1) 
1.0

>  <optical_isomers>  (1) 
1.0

>  <modes>  (1) 
IdealGasTranslation(mass=(56.0626, 'amu')),         NonlinearRotor(             inertia = ([32.5109, 90.3514, 116.676

>  <frequency_value>  (1) 
unknown

>  <frequency_units>  (1) 
unknown

>  <frequency_list>  (1) 
unknown

>  <arkane_path>  (1) 
/home/calvin/Dropbox/PersonalFolders/Calvin/HAb_Converged/rxn_38/output/Species/rxn_38_C=CCC/arkane/output.py

>  <path_exists>  (1) 
True

>  <E0_value>  (1) 
-412516.9632903335

>  <E0_units>  (1) 
kJ/mol

>  <thermo_class>  (1) 
NASA

>  <Cp0_value>  (1) 
33.257888

>  <Cp0_units>  (1) 
J/(mol*K)

>  <CpInf_value>  (1) 
282.692048

>  <CpInf_units>  (1) 
J/(mol*K)

>  <Tmin_value>  (1) 
10.0

>  <Tmin_units>  (1) 
K

>  <Tmax_value>  (1) 
3000.0

>  <Tmax_units>  (1) 
K

>  <polynomials>  (1) 
[{"name": "polynomial1", "class": "NASAPolynomial", "Tmin_value": 10.0, "Tmin_units": "K", "Tmax_value": 488.655875950425, "Tmax_units": "K", "coeffs": [3.9518334489867755, 0.002738214948316711, 0.00010027883330171994, -1.6337813639818567e-07, 8.627420085348335e-11, -49614327.71326204, 8.65572399544736]}, {"name": "polynomial2", "class": "NASAPolynomial", "Tmin_value": 488.655875950425, "Tmin_units": "K", "Tmax_value": 3000.0, "Tmax_units": "K", "coeffs": [-1.0177998638327943, 0.04340046679206265, -2.4485281954071822e-05, 6.761443222838627e-09, -7.324004262046576e-13, -49613841.81296031, 29.07476490076061]}]

>  <H298_value>  (1) 
-98590.13440490302

>  <H298_units>  (1) 
kcal/mol

>  <S298_value>  (1) 
69.88440789589453

>  <S298_units>  (1) 
cal/(mol*K)

>  <Cp_T_value_list>  (1) 
[20.042973263550383, 25.523981497089775, 30.524522062075274, 34.9218382998611, 42.11657803113529, 47.54675281077259, 55.846682187635814, 60.04373230790421, 62.15783038221664]

>  <Cp_T_units>  (1) 
cal/(mol*K)

>  <T_list>  (1) 
[300.0, 400.0, 500.0, 600.0, 800.0, 1000.0, 1500.0, 2000.0, 2400.0]

>  <T_units>  (1) 
K

>  <yaml_path>  (1) 
/home/calvin/Dropbox/PersonalFolders/Calvin/HAb_Converged/rxn_38/output/Species/rxn_38_C=CCC/rxn_38_C=CCC.yml

>  <frequencies_cm1>  (1) 
[165.89949834588, 270.68969432907994, 288.28291071892, 546.5845635307201, 562.94858954828, 802.8192537611999, 842.75764038232, 950.1229558605198, 1001.7077495843599, 1030.7756984439197, 1035.6375240504801, 1103.34599930568, 1142.2200032022, 1284.9434260930798, 1326.2895447048, 1372.0442678919599, 1403.3508539658399, 1441.4282875652402, 1464.212944857, 1485.72034287924, 1496.3092342426798, 1714.90597793424, 3000.2545561612, 3017.2984137254402, 3025.2847176525997, 3087.5545405343596, 3095.4996425496, 3112.8387804825998, 3128.2208275993994, 3206.66926789508]

>  <ZPE_kJmol>  (1) 
283.55462469418285

>  <E_elec_kJmol>  (1) 
-412800.5179150276

>  <E0_minus_Eelec_plus_ZPE_kJmol>  (1) 
0.0

>  <rxn>  (1) 
rxn_38

>  <species_type>  (1) 
r0

>  <species_folder>  (1) 
rxn_38_C=CCC

>  <frequencies_cm1_list>  (1) 
[165.89949834588, 270.68969432907994, 288.28291071892, 546.5845635307201, 562.94858954828, 802.8192537611999, 842.75764038232, 950.1229558605198, 1001.7077495843599, 1030.7756984439197, 1035.6375240504801, 1103.34599930568, 1142.2200032022, 1284.9434260930798, 1326.2895447048, 1372.0442678919599, 1403.3508539658399, 1441.4282875652402, 1464.212944857, 1485.72034287924, 1496.3092342426798, 1714.90597793424, 3000.2545561612, 3017.2984137254402, 3025.2847176525997, 3087.5545405343596, 3095.4996425496, 3112.8387804825998, 3128.2208275993994, 3206.66926789508]

>  <E0_kJmol>  (1) 
-412517

>  <H298_kJmol>  (1) 
-412501

$$$$

     RDKit          3D

  7  6  0  0  0  0  0  0  0  0999 V2000
   -1.5855    0.4175    0.1421 H   0  0  0  0  0  0  0  0  0  1  0  0
    0.6927   -0.9771   -0.1398 C   0  0  0  0  0  0  0  0  0  2  0  0
    0.1792    0.3131   -0.4187 O   0  0  0  0  0  0  0  0  0  3  0  0
   -0.7407    0.6429    0.5383 O   0  0  0  0  0  0  0  0  0  4  0  0
   -0.1030   -1.7241   -0.1739 H   0  0  0  0  0  0  0  0  0  5  0  0
    1.4222   -1.1764   -0.9244 H   0  0  0  0  0  0  0  0  0  6  0  0
    1.1768   -0.9891    0.8388 H   0  0  0  0  0  0  0  0  0  7  0  0
  1  4  1  0
  2  7  1  0
  2  3  1  0
  2  5  1  0
  2  6  1  0
  3  4  1  0
M  END
>  <rmg_smiles>  (2) 
COO

>  <rmg_adjacency_list>  (2) 
1 O u0 p2 c0 {2,S} {3,S}
2 O u0 p2 c0 {1,S} {7,S}
3 C u0 p0 c0 {1,S} {4,S} {5,S} {6,S}
4 H u0 p0 c0 {3,S}
5 H u0 p0 c0 {3,S}
6 H u0 p0 c0 {3,S}
7 H u0 p0 c0 {2,S}


>  <multiplicity>  (2) 
1

>  <reaction>  (2) 
rxn_38

>  <type>  (2) 
r2h

>  <role_mapnums>  (2) 
{"r2h_a": 4, "r2h_h": 1}

>  <role_mapidx>  (2) 
{"r2h_a": 3, "r2h_h": 0}

>  <ordered_mapped_smiles>  (2) 
[H:1][O:4][O:3][C:2]([H:5])([H:6])[H:7]

>  <mol_properties>  (2) 
{"0": {"label": "a_hydrogen", "atom_type": "H0"}, "3": {"label": "acceptor", "atom_type": "O2s"}}

>  <level_of_theory>  (2) 
wb97xd/def2tzvp

>  <lot_method>  (2) 
wb97xd

>  <lot_basis>  (2) 
def2tzvp

>  <spin_multiplicity>  (2) 
1.0

>  <optical_isomers>  (2) 
2.0

>  <modes>  (2) 
IdealGasTranslation(mass=(48.0211, 'amu')),         NonlinearRotor(             inertia = ([11.4023, 47.567, 54.3178

>  <frequency_value>  (2) 
unknown

>  <frequency_units>  (2) 
unknown

>  <frequency_list>  (2) 
unknown

>  <arkane_path>  (2) 
/home/calvin/Dropbox/PersonalFolders/Calvin/HAb_Converged/rxn_38/output/Species/rxn_38_COO/arkane/output.py

>  <path_exists>  (2) 
True

>  <E0_value>  (2) 
-500996.37068336905

>  <E0_units>  (2) 
kJ/mol

>  <thermo_class>  (2) 
NASA

>  <Cp0_value>  (2) 
33.257888

>  <Cp0_units>  (2) 
J/(mol*K)

>  <CpInf_value>  (2) 
157.97496800000002

>  <CpInf_units>  (2) 
J/(mol*K)

>  <Tmin_value>  (2) 
10.0

>  <Tmin_units>  (2) 
K

>  <Tmax_value>  (2) 
3000.0

>  <Tmax_units>  (2) 
K

>  <polynomials>  (2) 
[{"name": "polynomial1", "class": "NASAPolynomial", "Tmin_value": 10.0, "Tmin_units": "K", "Tmax_value": 838.5949652474656, "Tmax_units": "K", "coeffs": [3.8926443728626077, 0.009079617057146893, 1.4077594363309796e-05, -2.146343128221017e-08, 8.342945567828501e-12, -60255944.33113838, 7.728034520387312]}, {"name": "polynomial2", "class": "NASAPolynomial", "Tmin_value": 838.5949652474656, "Tmin_units": "K", "Tmax_value": 3000.0, "Tmax_units": "K", "coeffs": [2.424951820258174, 0.019415537920099646, -1.0376022054546496e-05, 2.719325617933143e-09, -2.8021762590741595e-13, -60255815.44373704, 13.851228259507778]}]

>  <H298_value>  (2) 
-119737.72749637083

>  <H298_units>  (2) 
kcal/mol

>  <S298_value>  (2) 
65.70242811461199

>  <S298_units>  (2) 
cal/(mol*K)

>  <Cp_T_value_list>  (2) 
[14.648848115750306, 17.123412840200732, 19.455460441127553, 21.5681321787005, 25.026862972497845, 27.62927597353183, 31.71846133727489, 33.8283402102642, 34.87818629343292]

>  <Cp_T_units>  (2) 
cal/(mol*K)

>  <T_list>  (2) 
[300.0, 400.0, 500.0, 600.0, 800.0, 1000.0, 1500.0, 2000.0, 2400.0]

>  <T_units>  (2) 
K

>  <yaml_path>  (2) 
/home/calvin/Dropbox/PersonalFolders/Calvin/HAb_Converged/rxn_38/output/Species/rxn_38_COO/rxn_38_COO.yml

>  <frequencies_cm1>  (2) 
[198.65501832228, 250.41148667912, 460.30775997024, 925.7657589304799, 1080.95962716248, 1168.36261631544, 1210.90359037284, 1386.59540978504, 1442.64374396688, 1454.0086046714798, 1497.71009924796, 2988.7866906767995, 3061.27458771472, 3102.9846565484, 3780.3372215278796]

>  <ZPE_kJmol>  (2) 
143.60998000405402

>  <E_elec_kJmol>  (2) 
-501139.98066337314

>  <E0_minus_Eelec_plus_ZPE_kJmol>  (2) 
0.0

>  <rxn>  (2) 
rxn_38

>  <species_type>  (2) 
p1

>  <species_folder>  (2) 
rxn_38_COO

>  <frequencies_cm1_list>  (2) 
[198.65501832228, 250.41148667912, 460.30775997024, 925.7657589304799, 1080.95962716248, 1168.36261631544, 1210.90359037284, 1386.59540978504, 1442.64374396688, 1454.0086046714798, 1497.71009924796, 2988.7866906767995, 3061.27458771472, 3102.9846565484, 3780.3372215278796]

>  <E0_kJmol>  (2) 
-500996

>  <H298_kJmol>  (2) 
-500983

$$$$

     RDKit          3D

 18 16  0  0  0  0  0  0  0  0999 V2000
   -0.6551   -0.9203   -1.8587 C   0  0  0  0  0  0  0  0  0  1  0  0
   -1.1278   -0.8704   -0.6089 C   0  0  0  0  0  0  0  0  0  2  0  0
   -1.4168    0.3415    0.1439 C   0  0  0  0  0  3  0  0  0  3  0  0
   -1.5360    1.6556   -0.5843 C   0  0  0  0  0  0  0  0  0  4  0  0
   -0.4805   -0.0251   -2.4422 H   0  0  0  0  0  0  0  0  0  5  0  0
   -0.4381   -1.8672   -2.3356 H   0  0  0  0  0  0  0  0  0  6  0  0
   -1.2743   -1.8055   -0.0754 H   0  0  0  0  0  0  0  0  0  7  0  0
   -0.3421    0.5065    0.8594 H   0  0  0  0  0  0  0  0  0  8  0  0
   -2.1540    0.1956    0.9333 H   0  0  0  0  0  0  0  0  0  9  0  0
   -2.3688    1.6359   -1.2934 H   0  0  0  0  0  0  0  0  0 10  0  0
   -0.6248    1.8822   -1.1401 H   0  0  0  0  0  0  0  0  0 11  0  0
   -1.7045    2.4699    0.1194 H   0  0  0  0  0  0  0  0  0 12  0  0
    2.1836   -0.8220    0.6936 C   0  0  0  0  0  0  0  0  0 13  0  0
    1.6702    0.4681    0.4146 O   0  0  0  0  0  0  0  0  0 14  0  0
    0.7502    0.7980    1.3717 O   0  0  0  0  0  0  0  0  0 15  0  0
    1.3880   -1.5690    0.6595 H   0  0  0  0  0  0  0  0  0 16  0  0
    2.9131   -1.0213   -0.0910 H   0  0  0  0  0  0  0  0  0 17  0  0
    2.6677   -0.8340    1.6722 H   0  0  0  0  0  0  0  0  0 18  0  0
  1  5  1  0
  1  6  1  0
  1  2  1  0
  2  7  1  0
  2  3  1  0
  3  4  1  0
  3  9  1  0
  4 12  1  0
  4 10  1  0
  4 11  1  0
  8 15  1  0
 13 17  1  0
 13 16  1  0
 13 14  1  0
 13 18  1  0
 14 15  1  0
M  RAD  1   3   2
M  END
>  <rmg_smiles>  (3) 
COO.[CH2][CH][CH]C

>  <rmg_adjacency_list>  (3) 
multiplicity 2
1  O u0 p2 c0 {2,S} {4,S}
2  O u0 p2 c0 {1,S} {18,S}
3  C u0 p0 c0 {5,S} {8,S} {9,S} {10,S}
4  C u0 p0 c0 {1,S} {11,S} {12,S} {13,S}
5  C u1 p0 c0 {3,S} {6,S} {14,S}
6  C u0 p0 c0 {5,S} {7,S} {15,S}
7  C u0 p0 c0 {6,S} {16,S} {17,S}
8  H u0 p0 c0 {3,S}
9  H u0 p0 c0 {3,S}
10 H u0 p0 c0 {3,S}
11 H u0 p0 c0 {4,S}
12 H u0 p0 c0 {4,S}
13 H u0 p0 c0 {4,S}
14 H u0 p0 c0 {5,S}
15 H u0 p0 c0 {6,S}
16 H u0 p0 c0 {7,S}
17 H u0 p0 c0 {7,S}
18 H u0 p0 c0 {2,S}


>  <multiplicity>  (3) 
2

>  <reaction>  (3) 
rxn_38

>  <type>  (3) 
ts

>  <role_mapnums>  (3) 
{"*2": 8, "*1": 3, "*3": 15, "*0": 14, "*4": 2}

>  <role_mapidx>  (3) 
{"*2": 7, "*1": 2, "*3": 14, "*0": 13, "*4": 1}

>  <ordered_mapped_smiles>  (3) 
[CH:1]([CH:2]([C:3]([C:4]([H:10])([H:11])[H:12])[H:9])[H:7])([H:5])[H:6].[H:8][O:15][O:14][C:13]([H:16])([H:17])[H:18]

>  <mol_properties>  (3) 
{"1": {"label": "*4", "atom_type": "Cs"}, "2": {"label": "*1", "atom_type": "Cs"}, "7": {"label": "*2", "atom_type": "H0"}, "13": {"label": "*0", "atom_type": "O2s"}, "14": {"label": "*3", "atom_type": "O2s"}}

>  <level_of_theory>  (3) 
wb97xd/def2tzvp

>  <lot_method>  (3) 
wb97xd

>  <lot_basis>  (3) 
def2tzvp

>  <spin_multiplicity>  (3) 
2.0

>  <optical_isomers>  (3) 
2.0

>  <modes>  (3) 
IdealGasTranslation(mass=(103.076, 'amu')),         NonlinearRotor(             inertia = ([157.492, 300.023, 387.882

>  <frequency_value>  (3) 
-1973.46

>  <frequency_units>  (3) 
cm^-1

>  <frequency_list>  (3) 
unknown

>  <arkane_path>  (3) 
/home/calvin/Dropbox/PersonalFolders/Calvin/HAb_Converged/rxn_38/output/rxns/TS0/arkane/output.py

>  <path_exists>  (3) 
True

>  <E0_value>  (3) 
-911803.0

>  <E0_units>  (3) 
kJ/mol

>  <thermo_class>  (3) 
unknown

>  <Cp0_value>  (3) 
unknown

>  <Cp0_units>  (3) 
unknown

>  <CpInf_value>  (3) 
unknown

>  <CpInf_units>  (3) 
unknown

>  <Tmin_value>  (3) 
unknown

>  <Tmin_units>  (3) 
unknown

>  <Tmax_value>  (3) 
unknown

>  <Tmax_units>  (3) 
unknown

>  <polynomials>  (3) 
unknown

>  <H298_value>  (3) 
unknown

>  <H298_units>  (3) 
unknown

>  <S298_value>  (3) 
unknown

>  <S298_units>  (3) 
unknown

>  <Cp_T_value_list>  (3) 
unknown

>  <Cp_T_units>  (3) 
unknown

>  <T_list>  (3) 
unknown

>  <T_units>  (3) 
unknown

>  <yaml_path>  (3) 
unknown

>  <frequencies_cm1>  (3) 
unknown

>  <ZPE_kJmol>  (3) 
unknown

>  <E_elec_kJmol>  (3) 
unknown

>  <E0_minus_Eelec_plus_ZPE_kJmol>  (3) 
unknown

>  <rxn>  (3) 
unknown

>  <species_type>  (3) 
unknown

>  <species_folder>  (3) 
unknown

>  <frequencies_cm1_list>  (3) 
[]

>  <ts_imag_freq_cm1>  (3) 
-1997.426

>  <ts_freq_out_path>  (3) 
/home/calvin/Dropbox/PersonalFolders/Calvin/HAb_Converged/rxn_38/output/rxns/TS0/geometry/freq.out

>  <E0_kJmol>  (3) 
-911803

>  <H298_kJmol>  (3) 
unknown

$$$$

     RDKit          3D

 11 10  0  0  0  0  0  0  0  0999 V2000
    2.0591    0.2533   -0.1061 C   0  0  0  0  0  0  0  0  0  1  0  0
    0.8045   -0.3111   -0.1535 C   0  0  0  0  0  0  0  0  0  2  0  0
   -0.3816    0.3942   -0.1885 C   0  0  0  0  0  3  0  0  0  3  0  0
   -1.7316   -0.2294   -0.2396 C   0  0  0  0  0  0  0  0  0  4  0  0
    2.9505   -0.3576   -0.0805 H   0  0  0  0  0  0  0  0  0  5  0  0
    2.1872    1.3290   -0.0933 H   0  0  0  0  0  0  0  0  0  6  0  0
    0.7385   -1.3970   -0.1643 H   0  0  0  0  0  0  0  0  0  7  0  0
   -0.3340    1.4795   -0.1783 H   0  0  0  0  0  0  0  0  0  8  0  0
   -1.6704   -1.3186   -0.2461 H   0  0  0  0  0  0  0  0  0  9  0  0
   -2.3404    0.0713    0.6191 H   0  0  0  0  0  0  0  0  0 10  0  0
   -2.2805    0.0851   -1.1331 H   0  0  0  0  0  0  0  0  0 11  0  0
  1  5  1  0
  1  6  1  0
  1  2  1  0
  2  7  1  0
  2  3  1  0
  3  4  1  0
  3  8  1  0
  4  9  1  0
  4 10  1  0
  4 11  1  0
M  RAD  1   3   2
M  END
>  <rmg_smiles>  (4) 
[CH2][CH][CH]C

>  <rmg_adjacency_list>  (4) 
multiplicity 2
1  C u0 p0 c0 {2,S} {5,S} {6,S} {7,S}
2  C u1 p0 c0 {1,S} {3,S} {8,S}
3  C u0 p0 c0 {2,S} {4,S} {9,S}
4  C u0 p0 c0 {3,S} {10,S} {11,S}
5  H u0 p0 c0 {1,S}
6  H u0 p0 c0 {1,S}
7  H u0 p0 c0 {1,S}
8  H u0 p0 c0 {2,S}
9  H u0 p0 c0 {3,S}
10 H u0 p0 c0 {4,S}
11 H u0 p0 c0 {4,S}


>  <multiplicity>  (4) 
2

>  <reaction>  (4) 
rxn_38

>  <type>  (4) 
r1

>  <role_mapnums>  (4) 
{}

>  <role_mapidx>  (4) 
{}

>  <ordered_mapped_smiles>  (4) 
[CH:1]([CH:2]([C:3]([C:4]([H:9])([H:10])[H:11])[H:8])[H:7])([H:5])[H:6]

>  <level_of_theory>  (4) 
wb97xd/def2tzvp

>  <lot_method>  (4) 
wb97xd

>  <lot_basis>  (4) 
def2tzvp

>  <spin_multiplicity>  (4) 
2.0

>  <optical_isomers>  (4) 
1.0

>  <modes>  (4) 
IdealGasTranslation(mass=(55.0548, 'amu')),         NonlinearRotor(             inertia = ([13.1906, 125.273, 135.366

>  <frequency_value>  (4) 
unknown

>  <frequency_units>  (4) 
unknown

>  <frequency_list>  (4) 
unknown

>  <arkane_path>  (4) 
/home/calvin/Dropbox/PersonalFolders/Calvin/HAb_Converged/rxn_38/output/Species/rxn_38_C=C[CH]C/arkane/output.py

>  <path_exists>  (4) 
True

>  <E0_value>  (4) 
-410861.3152330692

>  <E0_units>  (4) 
kJ/mol

>  <thermo_class>  (4) 
NASA

>  <Cp0_value>  (4) 
33.257888

>  <Cp0_units>  (4) 
J/(mol*K)

>  <CpInf_value>  (4) 
257.748632

>  <CpInf_units>  (4) 
J/(mol*K)

>  <Tmin_value>  (4) 
10.0

>  <Tmin_units>  (4) 
K

>  <Tmax_value>  (4) 
3000.0

>  <Tmax_units>  (4) 
K

>  <polynomials>  (4) 
[{"name": "polynomial1", "class": "NASAPolynomial", "Tmin_value": 10.0, "Tmin_units": "K", "Tmax_value": 463.6393307218724, "Tmax_units": "K", "coeffs": [3.9040427866109826, 0.008185983411080414, 7.727991952880457e-05, -1.3744264793304484e-07, 7.688975074355223e-11, -49415200.70388584, 8.995587426851019]}, {"name": "polynomial2", "class": "NASAPolynomial", "Tmin_value": 463.6393307218724, "Tmin_units": "K", "Tmax_value": 3000.0, "Tmax_units": "K", "coeffs": [0.3179549217714686, 0.039124611253892716, -2.281509301051405e-05, 6.484032923156998e-09, -7.173482644836273e-13, -49414868.17391742, 23.539944648157388]}]

>  <H298_value>  (4) 
-98194.28584360852

>  <H298_units>  (4) 
kcal/mol

>  <S298_value>  (4) 
71.63337428638437

>  <S298_units>  (4) 
cal/(mol*K)

>  <Cp_T_value_list>  (4) 
[20.32293445175687, 25.26787004109902, 29.6931518167585, 33.55769976572619, 39.8275597158211, 44.50181601093726, 51.51425090015371, 55.048594012523054, 56.90855371865896]

>  <Cp_T_units>  (4) 
cal/(mol*K)

>  <T_list>  (4) 
[300.0, 400.0, 500.0, 600.0, 800.0, 1000.0, 1500.0, 2000.0, 2400.0]

>  <T_units>  (4) 
K

>  <yaml_path>  (4) 
/home/calvin/Dropbox/PersonalFolders/Calvin/HAb_Converged/rxn_38/output/Species/rxn_38_C=C[CH]C/rxn_38_C=CCHC.yml

>  <frequencies_cm1>  (4) 
[145.86850216744, 217.17527773031998, 290.56274984515994, 508.82301125604, 544.53820190536, 739.89020028872, 798.30764440596, 881.33636391008, 988.4682018873999, 989.4158458615598, 1023.15334473872, 1138.3744914229999, 1188.9155033782, 1281.84641571376, 1335.3196304005999, 1400.47358711676, 1459.61893167792, 1463.37517264796, 1502.4895210306797, 1514.45180945812, 2991.0802637736797, 3039.3139686613595, 3086.1330745731198, 3108.55378164292, 3124.5401234678798, 3127.2937845812003, 3223.3011063401195]

>  <ZPE_kJmol>  (4) 
245.90815043438468

>  <E_elec_kJmol>  (4) 
-411107.2233835036

>  <E0_minus_Eelec_plus_ZPE_kJmol>  (4) 
0.0

>  <rxn>  (4) 
rxn_38

>  <species_type>  (4) 
p0

>  <species_folder>  (4) 
rxn_38_C=C[CH]C

>  <frequencies_cm1_list>  (4) 
[145.86850216744, 217.17527773031998, 290.56274984515994, 508.82301125604, 544.53820190536, 739.89020028872, 798.30764440596, 881.33636391008, 988.4682018873999, 989.4158458615598, 1023.15334473872, 1138.3744914229999, 1188.9155033782, 1281.84641571376, 1335.3196304005999, 1400.47358711676, 1459.61893167792, 1463.37517264796, 1502.4895210306797, 1514.45180945812, 2991.0802637736797, 3039.3139686613595, 3086.1330745731198, 3108.55378164292, 3124.5401234678798, 3127.2937845812003, 3223.3011063401195]

>  <E0_kJmol>  (4) 
-410861

>  <H298_kJmol>  (4) 
-410845

$$$$

     RDKit          3D

  6  5  0  0  0  0  0  0  0  0999 V2000
   -0.4344    0.0212    0.0006 C   0  0  0  0  0  0  0  0  0  1  0  0
    0.8754    0.5852   -0.1558 O   0  0  0  0  0  0  0  0  0  2  0  0
    1.8009   -0.3034    0.0506 O   0  0  0  0  0  1  0  0  0  3  0  0
   -0.5437   -0.3548    1.0170 H   0  0  0  0  0  0  0  0  0  4  0  0
   -1.1312    0.8347   -0.1903 H   0  0  0  0  0  0  0  0  0  5  0  0
   -0.5670   -0.7829   -0.7220 H   0  0  0  0  0  0  0  0  0  6  0  0
  1  6  1  0
  1  5  1  0
  1  4  1  0
  1  2  1  0
  2  3  1  0
M  RAD  1   3   2
M  END
>  <rmg_smiles>  (5) 
CO[O]

>  <rmg_adjacency_list>  (5) 
multiplicity 2
1 O u0 p2 c0 {2,S} {3,S}
2 O u1 p2 c0 {1,S}
3 C u0 p0 c0 {1,S} {4,S} {5,S} {6,S}
4 H u0 p0 c0 {3,S}
5 H u0 p0 c0 {3,S}
6 H u0 p0 c0 {3,S}


>  <multiplicity>  (5) 
2

>  <reaction>  (5) 
rxn_38

>  <type>  (5) 
r2

>  <role_mapnums>  (5) 
{}

>  <role_mapidx>  (5) 
{}

>  <ordered_mapped_smiles>  (5) 
[C:1]([O:2][O:3])([H:4])([H:5])[H:6]

>  <level_of_theory>  (5) 
wb97xd/def2tzvp

>  <lot_method>  (5) 
wb97xd

>  <lot_basis>  (5) 
def2tzvp

>  <spin_multiplicity>  (5) 
2.0

>  <optical_isomers>  (5) 
1.0

>  <modes>  (5) 
IdealGasTranslation(mass=(47.0133, 'amu')),         NonlinearRotor(             inertia = ([9.40664, 43.9235, 50.0969

>  <frequency_value>  (5) 
unknown

>  <frequency_units>  (5) 
unknown

>  <frequency_list>  (5) 
unknown

>  <arkane_path>  (5) 
/home/calvin/Dropbox/PersonalFolders/Calvin/HAb_Converged/rxn_38/output/Species/rxn_38_CO[O]/arkane/output.py

>  <path_exists>  (5) 
True

>  <E0_value>  (5) 
-499346.9973631375

>  <E0_units>  (5) 
kJ/mol

>  <thermo_class>  (5) 
NASA

>  <Cp0_value>  (5) 
33.257888

>  <Cp0_units>  (5) 
J/(mol*K)

>  <CpInf_value>  (5) 
133.031552

>  <CpInf_units>  (5) 
J/(mol*K)

>  <Tmin_value>  (5) 
10.0

>  <Tmin_units>  (5) 
K

>  <Tmax_value>  (5) 
3000.0

>  <Tmax_units>  (5) 
K

>  <polynomials>  (5) 
[{"name": "polynomial1", "class": "NASAPolynomial", "Tmin_value": 10.0, "Tmin_units": "K", "Tmax_value": 501.084150905133, "Tmax_units": "K", "coeffs": [3.977726295223183, 0.0012447421558763674, 3.797778277376904e-05, -6.034634030487068e-08, 3.1055886574502375e-11, -60057570.17193063, 8.012420918260052]}, {"name": "polynomial2", "class": "NASAPolynomial", "Tmin_value": 501.084150905133, "Tmin_units": "K", "Tmax_value": 3000.0, "Tmax_units": "K", "coeffs": [2.0044843309188844, 0.016996245529262752, -9.173655620434641e-06, 2.3851149939042196e-09, -2.4142600516931244e-13, -60057372.41638915, 16.168734393962772]}]

>  <H298_value>  (5) 
-119343.87017461388

>  <H298_units>  (5) 
kcal/mol

>  <S298_value>  (5) 
64.10732748835879

>  <S298_units>  (5) 
cal/(mol*K)

>  <Cp_T_value_list>  (5) 
[12.700934027862079, 14.874108149094356, 16.87584137047918, 18.647174080348332, 21.56642074844516, 23.788378509044545, 27.196255239801676, 28.85514610257635, 29.64338089676258]

>  <Cp_T_units>  (5) 
cal/(mol*K)

>  <T_list>  (5) 
[300.0, 400.0, 500.0, 600.0, 800.0, 1000.0, 1500.0, 2000.0, 2400.0]

>  <T_units>  (5) 
K

>  <yaml_path>  (5) 
/home/calvin/Dropbox/PersonalFolders/Calvin/HAb_Converged/rxn_38/output/Species/rxn_38_CO[O]/rxn_38_COO.yml

>  <frequencies_cm1>  (5) 
[136.11738301303998, 503.54229954496, 947.5135014389199, 1128.13581631088, 1182.0279171022398, 1265.29011410724, 1439.9312847654799, 1461.6721602886, 1472.47392819696, 3031.17659105716, 3125.4328315594803, 3142.8406393456794]

>  <ZPE_kJmol>  (5) 
112.66525579648996

>  <E_elec_kJmol>  (5) 
-499459.662618934

>  <E0_minus_Eelec_plus_ZPE_kJmol>  (5) 
0.0

>  <rxn>  (5) 
rxn_38

>  <species_type>  (5) 
r1

>  <species_folder>  (5) 
rxn_38_CO[O]

>  <frequencies_cm1_list>  (5) 
[136.11738301303998, 503.54229954496, 947.5135014389199, 1128.13581631088, 1182.0279171022398, 1265.29011410724, 1439.9312847654799, 1461.6721602886, 1472.47392819696, 3031.17659105716, 3125.4328315594803, 3142.8406393456794]

>  <E0_kJmol>  (5) 
-499347

>  <H298_kJmol>  (5) 
-499335

$$$$
