
     RDKit          3D

  7  6  0  0  0  0  0  0  0  0999 V2000
    1.0212   -1.3824   -1.6946 O   0  0  0  0  0  0  0  0  0  1  0  0
    0.6194   -1.3001   -0.5915 C   0  0  0  0  0  0  0  0  0  2  0  0
   -0.0017   -0.0338    0.0523 C   0  0  0  0  0  0  0  0  0  3  0  0
   -1.6695   -0.4748    0.4580 Cl  0  0  0  0  0  0  0  0  0  4  0  0
    0.0383    1.3482   -1.0280 Cl  0  0  0  0  0  0  0  0  0  5  0  0
    0.9338    0.2828    1.5241 Cl  0  0  0  0  0  0  0  0  0  6  0  0
    0.6366   -2.1493    0.0917 H   0  0  0  0  0  0  0  0  0  7  0  0
  1  2  1  0
  2  7  1  0
  2  3  1  0
  3  4  1  0
  3  5  1  0
  3  6  1  0
M  END
>  <rmg_smiles>  (1) 
O[CH]C(Cl)(Cl)Cl

>  <rmg_adjacency_list>  (1) 
1 Cl u0 p3 c0 {5,S}
2 Cl u0 p3 c0 {5,S}
3 Cl u0 p3 c0 {5,S}
4 O  u0 p2 c0 {6,S}
5 C  u0 p0 c0 {1,S} {2,S} {3,S} {6,S}
6 C  u0 p0 c0 {4,S} {5,S} {7,S}
7 H  u0 p0 c0 {6,S}


>  <multiplicity>  (1) 
1

>  <reaction>  (1) 
rxn_3248

>  <type>  (1) 
r1h

>  <role_mapnums>  (1) 
{"r1h_a": 2, "r1h_h": 7}

>  <role_mapidx>  (1) 
{"r1h_a": 1, "r1h_h": 6}

>  <ordered_mapped_smiles>  (1) 
[OH:1][CH:2]([C:3]([Cl:4])([Cl:5])[Cl:6])[H:7]

>  <mol_properties>  (1) 
{"1": {"label": "donator", "atom_type": "Cs"}, "6": {"label": "d_hydrogen", "atom_type": "H0"}}

>  <level_of_theory>  (1) 
wb97xd/def2tzvp

>  <lot_method>  (1) 
wb97xd

>  <lot_basis>  (1) 
def2tzvp

>  <spin_multiplicity>  (1) 
1.0

>  <optical_isomers>  (1) 
1.0

>  <modes>  (1) 
IdealGasTranslation(mass=(145.909, 'amu')),         NonlinearRotor(             inertia = ([273.278, 306.314, 329.392

>  <frequency_value>  (1) 
unknown

>  <frequency_units>  (1) 
unknown

>  <frequency_list>  (1) 
unknown

>  <arkane_path>  (1) 
/home/calvin/Dropbox/PersonalFolders/Calvin/ATLAS_Converged/NonRMG/rxn_3248/output/Species/rxn_3248_r2_O=CCrbr-Cl-rbrrbr-Cl-rbrCl/arkane/output.py

>  <path_exists>  (1) 
True

>  <E0_value>  (1) 
-4023892.977935756

>  <E0_units>  (1) 
kJ/mol

>  <thermo_class>  (1) 
NASA

>  <Cp0_value>  (1) 
33.257888

>  <Cp0_units>  (1) 
J/(mol*K)

>  <CpInf_value>  (1) 
157.97496800000002

>  <CpInf_units>  (1) 
J/(mol*K)

>  <Tmin_value>  (1) 
10.0

>  <Tmin_units>  (1) 
K

>  <Tmax_value>  (1) 
3000.0

>  <Tmax_units>  (1) 
K

>  <polynomials>  (1) 
[{"name": "polynomial1", "class": "NASAPolynomial", "Tmin_value": 10.0, "Tmin_units": "K", "Tmax_value": 380.3015181549124, "Tmax_units": "K", "coeffs": [3.723422744940978, 0.02246348912170062, 9.940563687647104e-05, -4.060196262947359e-07, 4.073502896038169e-10, -483962540.97412676, 12.379001585897578]}, {"name": "polynomial2", "class": "NASAPolynomial", "Tmin_value": 380.3015181549124, "Tmin_units": "K", "Tmax_value": 3000.0, "Tmax_units": "K", "coeffs": [6.699481871758383, 0.021429753347926156, -1.5902722382571426e-05, 5.397820217714689e-09, -6.811565500595124e-13, -483962986.2186271, -1.9793128843250438]}]

>  <H298_value>  (1) 
-961728.7883093884

>  <H298_units>  (1) 
kcal/mol

>  <S298_value>  (1) 
83.30597200995851

>  <S298_units>  (1) 
cal/(mol*K)

>  <Cp_T_value_list>  (1) 
[23.34169623423724, 25.942922279124062, 27.961651194826935, 29.629259065849645, 32.093831026528335, 33.66959049712089, 35.436412276197174, 36.23105888610527, 36.86573317562138]

>  <Cp_T_units>  (1) 
cal/(mol*K)

>  <T_list>  (1) 
[300.0, 400.0, 500.0, 600.0, 800.0, 1000.0, 1500.0, 2000.0, 2400.0]

>  <T_units>  (1) 
K

>  <yaml_path>  (1) 
/home/calvin/Dropbox/PersonalFolders/Calvin/ATLAS_Converged/NonRMG/rxn_3248/output/Species/rxn_3248_r2_O=CCrbr-Cl-rbrrbr-Cl-rbrCl/rxn_3248_r2_O=CCrbr-Cl-rbrrbr-Cl-rbrCl.yml

>  <frequencies_cm1>  (1) 
[80.59780670084001, 196.40264713731997, 247.32821027044, 267.48281218463995, 316.03926538236, 322.41182775932, 446.25790800552, 632.8751010618399, 744.04472640732, 857.88560904228, 1011.335263003, 1032.97313374632, 1375.4434256253599, 1859.17447252212, 2950.4757795765195]

>  <ZPE_kJmol>  (1) 
73.8139665390073

>  <E_elec_kJmol>  (1) 
-4023966.7919022953

>  <E0_minus_Eelec_plus_ZPE_kJmol>  (1) 
0.0

>  <rxn>  (1) 
rxn_3248

>  <species_type>  (1) 
r1

>  <species_folder>  (1) 
rxn_3248_r2_O=CCrbr-Cl-rbrrbr-Cl-rbrCl

>  <frequencies_cm1_list>  (1) 
[80.59780670084001, 196.40264713731997, 247.32821027044, 267.48281218463995, 316.03926538236, 322.41182775932, 446.25790800552, 632.8751010618399, 744.04472640732, 857.88560904228, 1011.335263003, 1032.97313374632, 1375.4434256253599, 1859.17447252212, 2950.4757795765195]

>  <E0_kJmol>  (1) 
-4.02389e+06

>  <H298_kJmol>  (1) 
-4.02387e+06

$$$$

     RDKit          3D

  8  7  0  0  0  0  0  0  0  0999 V2000
    1.2113    0.5305    1.0488 N   0  0  0  0  0  0  0  0  0  1  0  0
    0.7908   -0.3884    0.0083 C   0  0  0  0  0  0  0  0  0  2  0  0
   -0.5927   -0.2217   -0.4557 C   0  0  0  0  0  2  0  0  0  3  0  0
   -1.6804   -0.0605   -0.7824 N   0  0  0  0  0  0  0  0  0  4  0  0
    0.4165    0.7282    1.6581 H   0  0  0  0  0  0  0  0  0  5  0  0
    0.9028   -1.4114    0.3851 H   0  0  0  0  0  0  0  0  0  6  0  0
    1.4629   -0.2972   -0.8479 H   0  0  0  0  0  0  0  0  0  7  0  0
    1.3364    1.4285    0.5796 H   0  0  0  0  0  0  0  0  0  8  0  0
  1  5  1  0
  1  2  1  0
  1  8  1  0
  2  7  1  0
  2  6  1  0
  2  3  1  0
  3  4  1  0
M  RAD  1   3   3
M  END
>  <rmg_smiles>  (2) 
[N][C]CN

>  <rmg_adjacency_list>  (2) 
1 N u0 p1 c0 {3,S} {7,S} {8,S}
2 N u0 p2 c0 {4,S}
3 C u0 p0 c0 {1,S} {4,S} {5,S} {6,S}
4 C u0 p1 c0 {2,S} {3,S}
5 H u0 p0 c0 {3,S}
6 H u0 p0 c0 {3,S}
7 H u0 p0 c0 {1,S}
8 H u0 p0 c0 {1,S}


>  <multiplicity>  (2) 
1

>  <reaction>  (2) 
rxn_3248

>  <type>  (2) 
r2h

>  <role_mapnums>  (2) 
{"r2h_a": 1, "r2h_h": 8}

>  <role_mapidx>  (2) 
{"r2h_a": 0, "r2h_h": 7}

>  <ordered_mapped_smiles>  (2) 
[N:1]([C:2]([C:3][NH2:4])([H:6])[H:7])([H:5])[H:8]

>  <mol_properties>  (2) 
{"0": {"label": "acceptor", "atom_type": "N3s"}, "7": {"label": "a_hydrogen", "atom_type": "H0"}}

>  <level_of_theory>  (2) 
wb97xd/def2tzvp

>  <lot_method>  (2) 
wb97xd

>  <lot_basis>  (2) 
def2tzvp

>  <spin_multiplicity>  (2) 
1.0

>  <optical_isomers>  (2) 
1.0

>  <modes>  (2) 
IdealGasTranslation(mass=(56.0374, 'amu')),         NonlinearRotor(             inertia = ([16.5185, 105.395, 116.141

>  <frequency_value>  (2) 
unknown

>  <frequency_units>  (2) 
unknown

>  <frequency_list>  (2) 
unknown

>  <arkane_path>  (2) 
/home/calvin/Dropbox/PersonalFolders/Calvin/ATLAS_Converged/NonRMG/rxn_3248/output/Species/rxn_3248_p1_NCCtN/arkane/output.py

>  <path_exists>  (2) 
True

>  <E0_value>  (2) 
-493707.24096395954

>  <E0_units>  (2) 
kJ/mol

>  <thermo_class>  (2) 
NASA

>  <Cp0_value>  (2) 
33.257888

>  <Cp0_units>  (2) 
J/(mol*K)

>  <CpInf_value>  (2) 
182.918384

>  <CpInf_units>  (2) 
J/(mol*K)

>  <Tmin_value>  (2) 
10.0

>  <Tmin_units>  (2) 
K

>  <Tmax_value>  (2) 
3000.0

>  <Tmax_units>  (2) 
K

>  <polynomials>  (2) 
[{"name": "polynomial1", "class": "NASAPolynomial", "Tmin_value": 10.0, "Tmin_units": "K", "Tmax_value": 310.3656944426032, "Tmax_units": "K", "coeffs": [3.9731943208296037, 0.002034998905401934, 9.475709370659397e-05, -2.3009470252826854e-07, 1.8817978896599532e-10, -59379266.29095806, 8.166466583720501]}, {"name": "polynomial2", "class": "NASAPolynomial", "Tmin_value": 310.3656944426032, "Tmin_units": "K", "Tmax_value": 3000.0, "Tmax_units": "K", "coeffs": [2.222751666825024, 0.024594558995586543, -1.4272560220765838e-05, 4.0994905264842876e-09, -4.624224001756621e-13, -59379157.63460226, 14.563329871704575]}]

>  <H298_value>  (2) 
-117995.39622498966

>  <H298_units>  (2) 
kcal/mol

>  <S298_value>  (2) 
67.48007386059012

>  <S298_units>  (2) 
cal/(mol*K)

>  <Cp_T_value_list>  (2) 
[16.739297051439777, 19.926703272151446, 22.72455293853158, 25.171796492782516, 29.159257216543025, 32.15661505552977, 36.755563782360284, 39.185316788338156, 40.47748472918174]

>  <Cp_T_units>  (2) 
cal/(mol*K)

>  <T_list>  (2) 
[300.0, 400.0, 500.0, 600.0, 800.0, 1000.0, 1500.0, 2000.0, 2400.0]

>  <T_units>  (2) 
K

>  <yaml_path>  (2) 
/home/calvin/Dropbox/PersonalFolders/Calvin/ATLAS_Converged/NonRMG/rxn_3248/output/Species/rxn_3248_p1_NCCtN/rxn_3248_p1_NCCtN.yml

>  <frequencies_cm1>  (2) 
[216.01475721123998, 261.31625936728, 391.90571919772, 575.1100205500001, 821.9438078774, 892.22053564228, 915.49274889176, 1117.7804024483198, 1189.6365368368, 1359.3815469618798, 1375.3816227574798, 1458.4996130707598, 1659.1529241211601, 2352.78024430904, 3046.929455381239, 3089.3536906882, 3509.5925913162396, 3590.1972650023995]

>  <ZPE_kJmol>  (2) 
166.41668883231094

>  <E_elec_kJmol>  (2) 
-493873.6576527919

>  <E0_minus_Eelec_plus_ZPE_kJmol>  (2) 
0.0

>  <rxn>  (2) 
rxn_3248

>  <species_type>  (2) 
p0

>  <species_folder>  (2) 
rxn_3248_p1_NCCtN

>  <frequencies_cm1_list>  (2) 
[216.01475721123998, 261.31625936728, 391.90571919772, 575.1100205500001, 821.9438078774, 892.22053564228, 915.49274889176, 1117.7804024483198, 1189.6365368368, 1359.3815469618798, 1375.3816227574798, 1458.4996130707598, 1659.1529241211601, 2352.78024430904, 3046.929455381239, 3089.3536906882, 3509.5925913162396, 3590.1972650023995]

>  <E0_kJmol>  (2) 
-493707

>  <H298_kJmol>  (2) 
-493693

$$$$

     RDKit          3D

 14 12  0  0  0  0  0  0  0  0999 V2000
    0.5413   -2.4244    0.8554 N   0  0  0  0  0  2  0  0  0  1  0  0
    0.1208   -3.3433   -0.1850 C   0  0  0  0  0  0  0  0  0  2  0  0
   -1.2627   -3.1766   -0.6490 C   0  0  0  0  0  0  0  0  0  3  0  0
   -2.3504   -3.0155   -0.9757 N   0  0  0  0  0  0  0  0  0  4  0  0
   -0.2535   -2.2268    1.4648 H   0  0  0  0  0  0  0  0  0  5  0  0
    0.2328   -4.3664    0.1918 H   0  0  0  0  0  0  0  0  0  6  0  0
    0.7929   -3.2521   -1.0412 H   0  0  0  0  0  0  0  0  0  7  0  0
    1.0878   -0.3288   -1.6660 O   0  0  0  0  0  0  0  0  0  8  0  0
    0.6861   -0.2465   -0.5628 C   0  0  0  0  0  0  0  0  0  9  0  0
    0.0649    1.0198    0.0809 C   0  0  0  0  0  0  0  0  0 10  0  0
   -1.6029    0.5788    0.4866 Cl  0  0  0  0  0  0  0  0  0 11  0  0
    0.1049    2.4018   -0.9994 Cl  0  0  0  0  0  0  0  0  0 12  0  0
    1.0004    1.3364    1.5528 Cl  0  0  0  0  0  0  0  0  0 13  0  0
    0.7062   -1.2407    0.2370 H   0  0  0  0  0  0  0  0  0 14  0  0
  1  5  1  0
  1  2  1  0
  2  7  1  0
  2  6  1  0
  2  3  1  0
  3  4  1  0
  8  9  1  0
  9 10  1  0
  9 14  1  0
 10 11  1  0
 10 12  1  0
 10 13  1  0
M  RAD  1   1   2
M  END
>  <rmg_smiles>  (3) 
[O][CH]C(Cl)(Cl)Cl.[N][C]C[NH]

>  <rmg_adjacency_list>  (3) 
multiplicity 2
1  Cl u0 p3 c0 {8,S}
2  Cl u0 p3 c0 {8,S}
3  Cl u0 p3 c0 {8,S}
4  O  u0 p2 c0 {9,S}
5  N  u1 p1 c0 {7,S} {14,S}
6  N  u0 p2 c0 {10,S}
7  C  u0 p0 c0 {5,S} {10,S} {11,S} {12,S}
8  C  u0 p0 c0 {1,S} {2,S} {3,S} {9,S}
9  C  u0 p0 c0 {4,S} {8,S} {13,S}
10 C  u0 p1 c0 {6,S} {7,S}
11 H  u0 p0 c0 {7,S}
12 H  u0 p0 c0 {7,S}
13 H  u0 p0 c0 {9,S}
14 H  u0 p0 c0 {5,S}


>  <multiplicity>  (3) 
2

>  <reaction>  (3) 
rxn_3248

>  <type>  (3) 
ts

>  <role_mapnums>  (3) 
{"*2": 14, "*1": 9, "*3": 1, "*0": 8, "*4": 2}

>  <role_mapidx>  (3) 
{"*2": 13, "*1": 8, "*3": 0, "*0": 7, "*4": 1}

>  <ordered_mapped_smiles>  (3) 
[N:1]([C:2]([CH2:3][NH2:4])([H:6])[H:7])[H:5].[OH:8][CH:9]([C:10]([Cl:11])([Cl:12])[Cl:13])[H:14]

>  <mol_properties>  (3) 
{"0": {"label": "*3", "atom_type": "N3s"}, "1": {"label": "*4", "atom_type": "Cs"}, "7": {"label": "*0", "atom_type": "O2s"}, "8": {"label": "*1", "atom_type": "Cs"}, "13": {"label": "*2", "atom_type": "H0"}}

>  <level_of_theory>  (3) 
wb97xd/def2tzvp

>  <lot_method>  (3) 
wb97xd

>  <lot_basis>  (3) 
def2tzvp

>  <spin_multiplicity>  (3) 
2.0

>  <optical_isomers>  (3) 
2.0

>  <modes>  (3) 
IdealGasTranslation(mass=(200.939, 'amu')),         NonlinearRotor(             inertia = ([418.405, 1014.19, 1062.08

>  <frequency_value>  (3) 
-1707.27

>  <frequency_units>  (3) 
cm^-1

>  <frequency_list>  (3) 
unknown

>  <arkane_path>  (3) 
/home/calvin/Dropbox/PersonalFolders/Calvin/ATLAS_Converged/NonRMG/rxn_3248/output/rxns/TS0/arkane/output.py

>  <path_exists>  (3) 
True

>  <E0_value>  (3) 
-4515850.0

>  <E0_units>  (3) 
kJ/mol

>  <thermo_class>  (3) 
unknown

>  <Cp0_value>  (3) 
unknown

>  <Cp0_units>  (3) 
unknown

>  <CpInf_value>  (3) 
unknown

>  <CpInf_units>  (3) 
unknown

>  <Tmin_value>  (3) 
unknown

>  <Tmin_units>  (3) 
unknown

>  <Tmax_value>  (3) 
unknown

>  <Tmax_units>  (3) 
unknown

>  <polynomials>  (3) 
unknown

>  <H298_value>  (3) 
unknown

>  <H298_units>  (3) 
unknown

>  <S298_value>  (3) 
unknown

>  <S298_units>  (3) 
unknown

>  <Cp_T_value_list>  (3) 
unknown

>  <Cp_T_units>  (3) 
unknown

>  <T_list>  (3) 
unknown

>  <T_units>  (3) 
unknown

>  <yaml_path>  (3) 
unknown

>  <frequencies_cm1>  (3) 
unknown

>  <ZPE_kJmol>  (3) 
unknown

>  <E_elec_kJmol>  (3) 
unknown

>  <E0_minus_Eelec_plus_ZPE_kJmol>  (3) 
unknown

>  <rxn>  (3) 
unknown

>  <species_type>  (3) 
unknown

>  <species_folder>  (3) 
unknown

>  <frequencies_cm1_list>  (3) 
[]

>  <ts_imag_freq_cm1>  (3) 
-1728.003

>  <ts_freq_out_path>  (3) 
/home/calvin/Dropbox/PersonalFolders/Calvin/ATLAS_Converged/NonRMG/rxn_3248/output/rxns/TS0/geometry/freq.out

>  <E0_kJmol>  (3) 
-4.51585e+06

>  <H298_kJmol>  (3) 
unknown

$$$$

     RDKit          3D

  6  5  0  0  0  0  0  0  0  0999 V2000
    2.0226    0.3485   -0.2250 O   0  0  0  0  0  0  0  0  0  1  0  0
    1.1426   -0.2224    0.2768 C   0  0  0  0  0  3  0  0  0  2  0  0
   -0.3802   -0.0566    0.0338 C   0  0  0  0  0  0  0  0  0  3  0  0
   -0.7412    1.1812   -1.1785 Cl  0  0  0  0  0  0  0  0  0  4  0  0
   -1.0794    0.3853    1.5956 Cl  0  0  0  0  0  0  0  0  0  5  0  0
   -0.9645   -1.6360   -0.5027 Cl  0  0  0  0  0  0  0  0  0  6  0  0
  1  2  1  0
  2  3  1  0
  3  4  1  0
  3  5  1  0
  3  6  1  0
M  RAD  1   2   2
M  END
>  <rmg_smiles>  (4) 
O[C]C(Cl)(Cl)Cl

>  <rmg_adjacency_list>  (4) 
multiplicity 2
1 Cl u0 p3 c0 {5,S}
2 Cl u0 p3 c0 {5,S}
3 Cl u0 p3 c0 {5,S}
4 O  u0 p2 c0 {6,S}
5 C  u0 p0 c0 {1,S} {2,S} {3,S} {6,S}
6 C  u1 p1 c0 {4,S} {5,S}


>  <multiplicity>  (4) 
2

>  <reaction>  (4) 
rxn_3248

>  <type>  (4) 
r1

>  <role_mapnums>  (4) 
{}

>  <role_mapidx>  (4) 
{}

>  <ordered_mapped_smiles>  (4) 
[OH:1][CH:2][C:3]([Cl:4])([Cl:5])[Cl:6]

>  <level_of_theory>  (4) 
wb97xd/def2tzvp

>  <lot_method>  (4) 
wb97xd

>  <lot_basis>  (4) 
def2tzvp

>  <spin_multiplicity>  (4) 
2.0

>  <optical_isomers>  (4) 
1.0

>  <modes>  (4) 
IdealGasTranslation(mass=(144.901, 'amu')),         NonlinearRotor(             inertia = ([274.842, 303.378, 325.828

>  <frequency_value>  (4) 
unknown

>  <frequency_units>  (4) 
unknown

>  <frequency_list>  (4) 
unknown

>  <arkane_path>  (4) 
/home/calvin/Dropbox/PersonalFolders/Calvin/ATLAS_Converged/NonRMG/rxn_3248/output/Species/rxn_3248_p2_O=sbr-C-sbrCrbr-Cl-rbrrbr-Cl-rbrCl/arkane/output.py

>  <path_exists>  (4) 
True

>  <E0_value>  (4) 
-4022197.211751332

>  <E0_units>  (4) 
kJ/mol

>  <thermo_class>  (4) 
NASA

>  <Cp0_value>  (4) 
33.257888

>  <Cp0_units>  (4) 
J/(mol*K)

>  <CpInf_value>  (4) 
133.031552

>  <CpInf_units>  (4) 
J/(mol*K)

>  <Tmin_value>  (4) 
10.0

>  <Tmin_units>  (4) 
K

>  <Tmax_value>  (4) 
3000.0

>  <Tmax_units>  (4) 
K

>  <polynomials>  (4) 
[{"name": "polynomial1", "class": "NASAPolynomial", "Tmin_value": 10.0, "Tmin_units": "K", "Tmax_value": 394.65782662545547, "Tmax_units": "K", "coeffs": [3.7026445987500067, 0.023484846889204027, 9.546391367965323e-05, -4.0899577813330886e-07, 4.073609841594597e-10, -483758586.7023418, 13.350816833245641]}, {"name": "polynomial2", "class": "NASAPolynomial", "Tmin_value": 394.65782662545547, "Tmin_units": "K", "Tmax_value": 3000.0, "Tmax_units": "K", "coeffs": [7.967414909371843, 0.01614370076119231, -1.3020059357485258e-05, 4.645052046159401e-09, -6.048268499701151e-13, -483759202.7813972, -6.799583628743247]}]

>  <H298_value>  (4) 
-961323.491985425

>  <H298_units>  (4) 
kcal/mol

>  <S298_value>  (4) 
85.2068389379771

>  <S298_units>  (4) 
cal/(mol*K)

>  <Cp_T_value_list>  (4) 
[23.044816769066482, 25.085472411069, 26.483660567688244, 27.60500026243309, 29.17232477444, 30.06898098301339, 30.80755750876833, 31.115213931708205, 31.523555564483612]

>  <Cp_T_units>  (4) 
cal/(mol*K)

>  <T_list>  (4) 
[300.0, 400.0, 500.0, 600.0, 800.0, 1000.0, 1500.0, 2000.0, 2400.0]

>  <T_units>  (4) 
K

>  <yaml_path>  (4) 
/home/calvin/Dropbox/PersonalFolders/Calvin/ATLAS_Converged/NonRMG/rxn_3248/output/Species/rxn_3248_p2_O=sbr-C-sbrCrbr-Cl-rbrrbr-Cl-rbrCl/rxn_3248_p2_O=sbr-C-sbrCrbr-Cl-rbrrbr-Cl-rbrCl.yml

>  <frequencies_cm1>  (4) 
[58.39684316128, 179.57166611799997, 256.70164523223997, 262.07849473779993, 312.1250837499599, 387.5863854314399, 444.10167461504, 588.4182381001599, 785.67925840248, 821.90260596548, 834.0228350552799, 1972.7956116268397]

>  <ZPE_kJmol>  (4) 
41.2913959421872

>  <E_elec_kJmol>  (4) 
-4022238.503147274

>  <E0_minus_Eelec_plus_ZPE_kJmol>  (4) 
0.0

>  <rxn>  (4) 
rxn_3248

>  <species_type>  (4) 
p1

>  <species_folder>  (4) 
rxn_3248_p2_O=sbr-C-sbrCrbr-Cl-rbrrbr-Cl-rbrCl

>  <frequencies_cm1_list>  (4) 
[58.39684316128, 179.57166611799997, 256.70164523223997, 262.07849473779993, 312.1250837499599, 387.5863854314399, 444.10167461504, 588.4182381001599, 785.67925840248, 821.90260596548, 834.0228350552799, 1972.7956116268397]

>  <E0_kJmol>  (4) 
-4.0222e+06

>  <H298_kJmol>  (4) 
-4.02218e+06

$$$$

     RDKit          3D

  7  6  0  0  0  0  0  0  0  0999 V2000
   -1.3059    0.5497   -0.1304 N   0  0  0  0  0  2  0  0  0  1  0  0
   -0.2700   -0.4288    0.0448 C   0  0  0  0  0  0  0  0  0  2  0  0
    1.1109    0.0669    0.0401 C   0  0  0  0  0  0  0  0  0  3  0  0
    2.1758    0.4925    0.0308 N   0  0  0  0  0  0  0  0  0  4  0  0
   -0.8815    1.4733   -0.2339 H   0  0  0  0  0  0  0  0  0  5  0  0
   -0.3767   -1.1909   -0.7373 H   0  0  0  0  0  0  0  0  0  6  0  0
   -0.4527   -0.9628    0.9858 H   0  0  0  0  0  0  0  0  0  7  0  0
  1  5  1  0
  1  2  1  0
  2  7  1  0
  2  6  1  0
  2  3  1  0
  3  4  1  0
M  RAD  1   1   2
M  END
>  <rmg_smiles>  (5) 
[N][C]C[NH]

>  <rmg_adjacency_list>  (5) 
multiplicity 2
1 N u1 p1 c0 {3,S} {7,S}
2 N u0 p2 c0 {4,S}
3 C u0 p0 c0 {1,S} {4,S} {5,S} {6,S}
4 C u0 p1 c0 {2,S} {3,S}
5 H u0 p0 c0 {3,S}
6 H u0 p0 c0 {3,S}
7 H u0 p0 c0 {1,S}


>  <multiplicity>  (5) 
2

>  <reaction>  (5) 
rxn_3248

>  <type>  (5) 
r2

>  <role_mapnums>  (5) 
{}

>  <role_mapidx>  (5) 
{}

>  <ordered_mapped_smiles>  (5) 
[N:1]([C:2]([CH2:3][NH2:4])([H:6])[H:7])[H:5]

>  <level_of_theory>  (5) 
wb97xd/def2tzvp

>  <lot_method>  (5) 
wb97xd

>  <lot_basis>  (5) 
def2tzvp

>  <spin_multiplicity>  (5) 
2.0

>  <optical_isomers>  (5) 
1.0

>  <modes>  (5) 
IdealGasTranslation(mass=(55.0296, 'amu')),         NonlinearRotor(             inertia = ([14.3798, 101.116, 112.445

>  <frequency_value>  (5) 
unknown

>  <frequency_units>  (5) 
unknown

>  <frequency_list>  (5) 
unknown

>  <arkane_path>  (5) 
/home/calvin/Dropbox/PersonalFolders/Calvin/ATLAS_Converged/NonRMG/rxn_3248/output/Species/rxn_3248_r1_sbr-NH-sbrCCtN/arkane/output.py

>  <path_exists>  (5) 
True

>  <E0_value>  (5) 
-491973.9107065931

>  <E0_units>  (5) 
kJ/mol

>  <thermo_class>  (5) 
NASA

>  <Cp0_value>  (5) 
33.257888

>  <Cp0_units>  (5) 
J/(mol*K)

>  <CpInf_value>  (5) 
157.97496800000002

>  <CpInf_units>  (5) 
J/(mol*K)

>  <Tmin_value>  (5) 
10.0

>  <Tmin_units>  (5) 
K

>  <Tmax_value>  (5) 
3000.0

>  <Tmax_units>  (5) 
K

>  <polynomials>  (5) 
[{"name": "polynomial1", "class": "NASAPolynomial", "Tmin_value": 10.0, "Tmin_units": "K", "Tmax_value": 441.5888552627719, "Tmax_units": "K", "coeffs": [3.8074387231682363, 0.01890513209384672, -2.384570888732855e-05, 4.838233157000235e-08, -4.1393745668634286e-11, -59170793.396980785, 9.226799164772778]}, {"name": "polynomial2", "class": "NASAPolynomial", "Tmin_value": 441.5888552627719, "Tmin_units": "K", "Tmax_value": 3000.0, "Tmax_units": "K", "coeffs": [2.9869977814233555, 0.020949312305084667, -1.2488909357575524e-05, 3.6086756240984913e-09, -4.0428709073473696e-13, -59170668.40878062, 13.109112838271622]}]

>  <H298_value>  (5) 
-117580.92958719996

>  <H298_units>  (5) 
kcal/mol

>  <S298_value>  (5) 
71.21799638955733

>  <S298_units>  (5) 
cal/(mol*K)

>  <Cp_T_value_list>  (5) 
[16.50156041465201, 19.059232907035433, 21.392761081461902, 23.42450687983812, 26.69929489980552, 29.116130872672766, 32.67662417459433, 34.43987147616164, 35.37681819280643]

>  <Cp_T_units>  (5) 
cal/(mol*K)

>  <T_list>  (5) 
[300.0, 400.0, 500.0, 600.0, 800.0, 1000.0, 1500.0, 2000.0, 2400.0]

>  <T_units>  (5) 
K

>  <yaml_path>  (5) 
/home/calvin/Dropbox/PersonalFolders/Calvin/ATLAS_Converged/NonRMG/rxn_3248/output/Species/rxn_3248_r1_sbr-NH-sbrCCtN/rxn_3248_r1_sbr-NH-sbrCCtN.yml

>  <frequencies_cm1>  (5) 
[63.7942936228, 224.96930606852, 349.44028197883995, 587.4774611113199, 879.8668290515999, 884.95526517372, 1044.48906812796, 1212.8469472184, 1240.74064158824, 1356.4012753329998, 1409.47620487128, 2361.53565059204, 2988.3609375869596, 3014.2975411406, 3431.2265548443993]

>  <ZPE_kJmol>  (5) 
125.90626832277542

>  <E_elec_kJmol>  (5) 
-492099.8169749159

>  <E0_minus_Eelec_plus_ZPE_kJmol>  (5) 
0.0

>  <rxn>  (5) 
rxn_3248

>  <species_type>  (5) 
r0

>  <species_folder>  (5) 
rxn_3248_r1_sbr-NH-sbrCCtN

>  <frequencies_cm1_list>  (5) 
[63.7942936228, 224.96930606852, 349.44028197883995, 587.4774611113199, 879.8668290515999, 884.95526517372, 1044.48906812796, 1212.8469472184, 1240.74064158824, 1356.4012753329998, 1409.47620487128, 2361.53565059204, 2988.3609375869596, 3014.2975411406, 3431.2265548443993]

>  <E0_kJmol>  (5) 
-491974

>  <H298_kJmol>  (5) 
-491959

$$$$
