
     RDKit          3D

  4  3  0  0  0  0  0  0  0  0999 V2000
    0.5177    0.1486    0.2300 C   0  0  0  0  0  0  0  0  0  1  0  0
   -0.5229   -0.1544   -0.2376 O   0  0  0  0  0  0  0  0  0  2  0  0
    0.6281    0.8503    1.0843 H   0  0  0  0  0  0  0  0  0  3  0  0
    1.4962   -0.2336   -0.1319 H   0  0  0  0  0  0  0  0  0  4  0  0
  1  3  1  0
  1  2  1  0
  1  4  1  0
M  END
>  <rmg_smiles>  (1) 
[CH2]O

>  <rmg_adjacency_list>  (1) 
1 O u0 p2 c0 {2,S}
2 C u0 p0 c0 {1,S} {3,S} {4,S}
3 H u0 p0 c0 {2,S}
4 H u0 p0 c0 {2,S}


>  <multiplicity>  (1) 
1

>  <reaction>  (1) 
rxn_3126

>  <type>  (1) 
r1h

>  <role_mapnums>  (1) 
{"r1h_a": 1, "r1h_h": 3}

>  <role_mapidx>  (1) 
{"r1h_a": 0, "r1h_h": 2}

>  <ordered_mapped_smiles>  (1) 
[CH:1]([OH:2])([H:3])[H:4]

>  <mol_properties>  (1) 
{"0": {"label": "donator", "atom_type": "Cs"}, "2": {"label": "d_hydrogen", "atom_type": "H0"}}

>  <level_of_theory>  (1) 
wb97xd/def2tzvp

>  <lot_method>  (1) 
wb97xd

>  <lot_basis>  (1) 
def2tzvp

>  <spin_multiplicity>  (1) 
1.0

>  <optical_isomers>  (1) 
1.0

>  <modes>  (1) 
IdealGasTranslation(mass=(30.0106, 'amu')),         NonlinearRotor(             inertia = ([1.77806, 12.8193, 14.5973

>  <frequency_value>  (1) 
unknown

>  <frequency_units>  (1) 
unknown

>  <frequency_list>  (1) 
unknown

>  <arkane_path>  (1) 
/home/calvin/Dropbox/PersonalFolders/Calvin/ATLAS_Converged/NonRMG/rxn_3126/output/Species/rxn_3126_r2_C=O/arkane/output.py

>  <path_exists>  (1) 
True

>  <E0_value>  (1) 
-300581.8492768146

>  <E0_units>  (1) 
kJ/mol

>  <thermo_class>  (1) 
NASA

>  <Cp0_value>  (1) 
33.257888

>  <Cp0_units>  (1) 
J/(mol*K)

>  <CpInf_value>  (1) 
83.14472

>  <CpInf_units>  (1) 
J/(mol*K)

>  <Tmin_value>  (1) 
10.0

>  <Tmin_units>  (1) 
K

>  <Tmax_value>  (1) 
3000.0

>  <Tmax_units>  (1) 
K

>  <polynomials>  (1) 
[{"name": "polynomial1", "class": "NASAPolynomial", "Tmin_value": 10.0, "Tmin_units": "K", "Tmax_value": 596.0205237930071, "Tmax_units": "K", "coeffs": [4.0320859479002715, -0.0019550592545914485, 9.151633888317553e-06, 2.7700763665051857e-09, -7.982744667768104e-12, -36151647.44104862, 3.466126177312469]}, {"name": "polynomial2", "class": "NASAPolynomial", "Tmin_value": 596.0205237930071, "Tmin_units": "K", "Tmax_value": 3000.0, "Tmax_units": "K", "coeffs": [1.4201654130054195, 0.009518009003554805, -4.481467430238535e-06, 9.715087208057756e-10, -7.774665481495593e-14, -36151228.52265552, 15.617890323158761]}]

>  <H298_value>  (1) 
-71838.4097498939

>  <H298_units>  (1) 
kcal/mol

>  <S298_value>  (1) 
52.203392278201385

>  <S298_units>  (1) 
cal/(mol*K)

>  <Cp_T_value_list>  (1) 
[8.503946280703314, 9.31453425218036, 10.313209856404354, 11.361679204156097, 13.17915529435464, 14.606899885831478, 16.889519816817618, 18.000984872182432, 18.48265745004106]

>  <Cp_T_units>  (1) 
cal/(mol*K)

>  <T_list>  (1) 
[300.0, 400.0, 500.0, 600.0, 800.0, 1000.0, 1500.0, 2000.0, 2400.0]

>  <T_units>  (1) 
K

>  <yaml_path>  (1) 
/home/calvin/Dropbox/PersonalFolders/Calvin/ATLAS_Converged/NonRMG/rxn_3126/output/Species/rxn_3126_r2_C=O/rxn_3126_r2_C=O.yml

>  <frequencies_cm1>  (1) 
[1198.0829287804, 1259.87892967508, 1521.5866072056, 1834.858477504, 2871.3269067782003, 2932.0447909776403]

>  <ZPE_kJmol>  (1) 
69.48976791829953

>  <E_elec_kJmol>  (1) 
-300651.3390447329

>  <E0_minus_Eelec_plus_ZPE_kJmol>  (1) 
0.0

>  <rxn>  (1) 
rxn_3126

>  <species_type>  (1) 
r1

>  <species_folder>  (1) 
rxn_3126_r2_C=O

>  <frequencies_cm1_list>  (1) 
[1198.0829287804, 1259.87892967508, 1521.5866072056, 1834.858477504, 2871.3269067782003, 2932.0447909776403]

>  <E0_kJmol>  (1) 
-300582

>  <H298_kJmol>  (1) 
-300572

$$$$

     RDKit          3D

  7  7  0  0  0  0  0  0  0  0999 V2000
    1.8038   -0.6566   -0.6062 N   0  0  0  0  0  0  0  0  0  1  0  0
    0.6799   -0.2571   -0.2400 C   0  0  0  0  0  0  0  0  0  2  0  0
    0.4540    0.6166    0.7867 O   0  0  0  0  0  0  0  0  0  3  0  0
   -0.9089    0.7974    0.8659 N   0  0  0  0  0  0  0  0  0  4  0  0
   -1.4767    0.1355    0.0132 N   0  0  0  0  0  0  0  0  0  5  0  0
   -0.5543   -0.5662   -0.7365 O   0  0  0  0  0  0  0  0  0  6  0  0
    1.6452   -1.3063   -1.4027 H   0  0  0  0  0  0  0  0  0  7  0  0
  1  2  1  0
  1  7  1  0
  2  3  1  0
  2  6  1  0
  3  4  1  0
  4  5  1  0
  5  6  1  0
M  END
>  <rmg_smiles>  (2) 
[NH][C]1O[N][N]O1

>  <rmg_adjacency_list>  (2) 
1 O u0 p2 c0 {3,S} {6,S}
2 O u0 p2 c0 {4,S} {6,S}
3 N u0 p1 c0 {1,S} {4,S}
4 N u0 p1 c0 {2,S} {3,S}
5 N u0 p1 c0 {6,S} {7,S}
6 C u0 p0 c0 {1,S} {2,S} {5,S}
7 H u0 p0 c0 {5,S}


>  <multiplicity>  (2) 
1

>  <reaction>  (2) 
rxn_3126

>  <type>  (2) 
r2h

>  <role_mapnums>  (2) 
{"r2h_a": 1, "r2h_h": 7}

>  <role_mapidx>  (2) 
{"r2h_a": 0, "r2h_h": 6}

>  <ordered_mapped_smiles>  (2) 
[NH:1]([CH:2]1[O:3][NH:4][NH:5][O:6]1)[H:7]

>  <mol_properties>  (2) 
{"0": {"label": "acceptor", "atom_type": "N3s"}, "6": {"label": "a_hydrogen", "atom_type": "H0"}}

>  <level_of_theory>  (2) 
wb97xd/def2tzvp

>  <lot_method>  (2) 
wb97xd

>  <lot_basis>  (2) 
def2tzvp

>  <spin_multiplicity>  (2) 
1.0

>  <optical_isomers>  (2) 
1.0

>  <modes>  (2) 
IdealGasTranslation(mass=(87.0069, 'amu')),         NonlinearRotor(             inertia = ([48.8575, 120.721, 169.578

>  <frequency_value>  (2) 
unknown

>  <frequency_units>  (2) 
unknown

>  <frequency_list>  (2) 
unknown

>  <arkane_path>  (2) 
/home/calvin/Dropbox/PersonalFolders/Calvin/ATLAS_Converged/NonRMG/rxn_3126/output/Species/rxn_3126_p1_N=c1onno1/arkane/output.py

>  <path_exists>  (2) 
True

>  <E0_value>  (2) 
-927513.3956974436

>  <E0_units>  (2) 
kJ/mol

>  <thermo_class>  (2) 
NASA

>  <Cp0_value>  (2) 
33.257888

>  <Cp0_units>  (2) 
J/(mol*K)

>  <CpInf_value>  (2) 
157.97496800000002

>  <CpInf_units>  (2) 
J/(mol*K)

>  <Tmin_value>  (2) 
10.0

>  <Tmin_units>  (2) 
K

>  <Tmax_value>  (2) 
3000.0

>  <Tmax_units>  (2) 
K

>  <polynomials>  (2) 
[{"name": "polynomial1", "class": "NASAPolynomial", "Tmin_value": 10.0, "Tmin_units": "K", "Tmax_value": 594.5510705426203, "Tmax_units": "K", "coeffs": [4.064128165333628, -0.006464132682369532, 0.00012609118943386684, -2.2452471871589397e-07, 1.2482881080850414e-10, -111554092.36102824, 9.73736041625877]}, {"name": "polynomial2", "class": "NASAPolynomial", "Tmin_value": 594.5510705426203, "Tmin_units": "K", "Tmax_value": 3000.0, "Tmax_units": "K", "coeffs": [2.6619435988700717, 0.02700063330274151, -1.8966063744434276e-05, 6.109629991067157e-09, -7.351884988814937e-13, -111554350.36753283, 12.201082878024012]}]

>  <H298_value>  (2) 
-221677.73393283132

>  <H298_units>  (2) 
kcal/mol

>  <S298_value>  (2) 
69.21240690289005

>  <S298_units>  (2) 
cal/(mol*K)

>  <Cp_T_value_list>  (2) 
[16.736335365541446, 20.824137553247738, 24.027452944596273, 26.348252322457366, 29.711055843773885, 31.936305555783512, 34.552273976473494, 35.596788664173474, 36.33939231381346]

>  <Cp_T_units>  (2) 
cal/(mol*K)

>  <T_list>  (2) 
[300.0, 400.0, 500.0, 600.0, 800.0, 1000.0, 1500.0, 2000.0, 2400.0]

>  <T_units>  (2) 
K

>  <yaml_path>  (2) 
/home/calvin/Dropbox/PersonalFolders/Calvin/ATLAS_Converged/NonRMG/rxn_3126/output/Species/rxn_3126_p1_N=c1onno1/rxn_3126_p1_N=c1onno1.yml

>  <frequencies_cm1>  (2) 
[208.89369343439998, 445.44073675243993, 644.52150816456, 714.2214091625599, 757.75122910604, 783.81143839544, 819.0802749989599, 941.40875148944, 996.4545058145599, 1049.54316932348, 1062.20589025356, 1273.50302854996, 1598.9500638207198, 1829.7357064552798, 3558.0254387782]

>  <ZPE_kJmol>  (2) 
99.78979924741076

>  <E_elec_kJmol>  (2) 
-927613.1854966908

>  <E0_minus_Eelec_plus_ZPE_kJmol>  (2) 
0.0

>  <rxn>  (2) 
rxn_3126

>  <species_type>  (2) 
p0

>  <species_folder>  (2) 
rxn_3126_p1_N=c1onno1

>  <frequencies_cm1_list>  (2) 
[208.89369343439998, 445.44073675243993, 644.52150816456, 714.2214091625599, 757.75122910604, 783.81143839544, 819.0802749989599, 941.40875148944, 996.4545058145599, 1049.54316932348, 1062.20589025356, 1273.50302854996, 1598.9500638207198, 1829.7357064552798, 3558.0254387782]

>  <E0_kJmol>  (2) 
-927513

>  <H298_kJmol>  (2) 
-927500

$$$$

     RDKit          3D

 10  9  0  0  0  0  0  0  0  0999 V2000
    1.4502   -0.0488    0.2304 N   0  0  0  0  0  2  0  0  0  1  0  0
    0.3263    0.3507    0.5966 C   0  0  0  0  0  0  0  0  0  2  0  0
    0.1004    1.2244    1.6233 O   0  0  0  0  0  0  0  0  0  3  0  0
   -1.2625    1.4052    1.7026 N   0  0  0  0  0  0  0  0  0  4  0  0
   -1.8303    0.7433    0.8498 N   0  0  0  0  0  0  0  0  0  5  0  0
   -0.9079    0.0416    0.1002 O   0  0  0  0  0  0  0  0  0  6  0  0
    1.1051   -1.7342   -1.8294 C   0  0  0  0  0  0  0  0  0  7  0  0
    0.0646   -2.0372   -2.2969 O   0  0  0  0  0  0  0  0  0  8  0  0
    1.2258   -0.9676   -0.8961 H   0  0  0  0  0  0  0  0  0  9  0  0
    2.0836   -2.1163   -2.1913 H   0  0  0  0  0  0  0  0  0 10  0  0
  1  2  1  0
  2  3  1  0
  2  6  1  0
  3  4  1  0
  4  5  1  0
  5  6  1  0
  7  8  1  0
  7 10  1  0
  7  9  1  0
M  RAD  1   1   2
M  END
>  <rmg_smiles>  (3) 
[N][C]1O[N][N]O1.[CH2][O]

>  <rmg_adjacency_list>  (3) 
multiplicity 2
1  O u0 p2 c0 {4,S} {7,S}
2  O u0 p2 c0 {5,S} {7,S}
3  O u0 p2 c0 {8,S}
4  N u0 p1 c0 {1,S} {5,S}
5  N u0 p1 c0 {2,S} {4,S}
6  N u1 p2 c0 {7,S}
7  C u0 p0 c0 {1,S} {2,S} {6,S}
8  C u0 p0 c0 {3,S} {9,S} {10,S}
9  H u0 p0 c0 {8,S}
10 H u0 p0 c0 {8,S}


>  <multiplicity>  (3) 
2

>  <reaction>  (3) 
rxn_3126

>  <type>  (3) 
ts

>  <role_mapnums>  (3) 
{"*2": 9, "*1": 7, "*3": 1, "*0": 8, "*4": 2}

>  <role_mapidx>  (3) 
{"*2": 8, "*1": 6, "*3": 0, "*0": 7, "*4": 1}

>  <ordered_mapped_smiles>  (3) 
[NH:1][CH:2]1[O:3][NH:4][NH:5][O:6]1.[CH:7]([OH:8])([H:9])[H:10]

>  <mol_properties>  (3) 
{"0": {"label": "*3", "atom_type": "N1s"}, "1": {"label": "*4", "atom_type": "Cs"}, "6": {"label": "*1", "atom_type": "Cs"}, "7": {"label": "*0", "atom_type": "O2s"}, "8": {"label": "*2", "atom_type": "H0"}}

>  <level_of_theory>  (3) 
wb97xd/def2tzvp

>  <lot_method>  (3) 
wb97xd

>  <lot_basis>  (3) 
def2tzvp

>  <spin_multiplicity>  (3) 
2.0

>  <optical_isomers>  (3) 
1.0

>  <modes>  (3) 
IdealGasTranslation(mass=(116.01, 'amu')),         NonlinearRotor(             inertia = ([96.2456, 431.667, 527.91

>  <frequency_value>  (3) 
-909.26

>  <frequency_units>  (3) 
cm^-1

>  <frequency_list>  (3) 
unknown

>  <arkane_path>  (3) 
/home/calvin/Dropbox/PersonalFolders/Calvin/ATLAS_Converged/NonRMG/rxn_3126/output/rxns/TS0/arkane/output.py

>  <path_exists>  (3) 
True

>  <E0_value>  (3) 
-1226340.0

>  <E0_units>  (3) 
kJ/mol

>  <thermo_class>  (3) 
unknown

>  <Cp0_value>  (3) 
unknown

>  <Cp0_units>  (3) 
unknown

>  <CpInf_value>  (3) 
unknown

>  <CpInf_units>  (3) 
unknown

>  <Tmin_value>  (3) 
unknown

>  <Tmin_units>  (3) 
unknown

>  <Tmax_value>  (3) 
unknown

>  <Tmax_units>  (3) 
unknown

>  <polynomials>  (3) 
unknown

>  <H298_value>  (3) 
unknown

>  <H298_units>  (3) 
unknown

>  <S298_value>  (3) 
unknown

>  <S298_units>  (3) 
unknown

>  <Cp_T_value_list>  (3) 
unknown

>  <Cp_T_units>  (3) 
unknown

>  <T_list>  (3) 
unknown

>  <T_units>  (3) 
unknown

>  <yaml_path>  (3) 
unknown

>  <frequencies_cm1>  (3) 
unknown

>  <ZPE_kJmol>  (3) 
unknown

>  <E_elec_kJmol>  (3) 
unknown

>  <E0_minus_Eelec_plus_ZPE_kJmol>  (3) 
unknown

>  <rxn>  (3) 
unknown

>  <species_type>  (3) 
unknown

>  <species_folder>  (3) 
unknown

>  <frequencies_cm1_list>  (3) 
[]

>  <ts_imag_freq_cm1>  (3) 
-920.304

>  <ts_freq_out_path>  (3) 
/home/calvin/Dropbox/PersonalFolders/Calvin/ATLAS_Converged/NonRMG/rxn_3126/output/rxns/TS0/geometry/freq.out

>  <E0_kJmol>  (3) 
-1.22634e+06

>  <H298_kJmol>  (3) 
unknown

$$$$

     RDKit          3D

  3  2  0  0  0  0  0  0  0  0999 V2000
   -0.0494   -0.2484    0.2507 C   0  0  0  0  0  3  0  0  0  1  0  0
    1.0305   -0.0025   -0.1224 O   0  0  0  0  0  0  0  0  0  2  0  0
   -0.9811    0.2509   -0.1282 H   0  0  0  0  0  0  0  0  0  3  0  0
  1  3  1  0
  1  2  1  0
M  RAD  1   1   2
M  END
>  <rmg_smiles>  (4) 
[CH]O

>  <rmg_adjacency_list>  (4) 
multiplicity 2
1 O u0 p2 c0 {2,S}
2 C u1 p1 c0 {1,S} {3,S}
3 H u0 p0 c0 {2,S}


>  <multiplicity>  (4) 
2

>  <reaction>  (4) 
rxn_3126

>  <type>  (4) 
r1

>  <role_mapnums>  (4) 
{}

>  <role_mapidx>  (4) 
{}

>  <ordered_mapped_smiles>  (4) 
[CH:1]([OH:2])[H:3]

>  <level_of_theory>  (4) 
wb97xd/def2tzvp

>  <lot_method>  (4) 
wb97xd

>  <lot_basis>  (4) 
def2tzvp

>  <spin_multiplicity>  (4) 
2.0

>  <optical_isomers>  (4) 
1.0

>  <modes>  (4) 
IdealGasTranslation(mass=(29.0027, 'amu')),         NonlinearRotor(             inertia = ([0.700918, 11.1485, 11.8495

>  <frequency_value>  (4) 
unknown

>  <frequency_units>  (4) 
unknown

>  <frequency_list>  (4) 
unknown

>  <arkane_path>  (4) 
/home/calvin/Dropbox/PersonalFolders/Calvin/ATLAS_Converged/NonRMG/rxn_3126/output/Species/rxn_3126_p2_sbr-CH-sbr=O/arkane/output.py

>  <path_exists>  (4) 
True

>  <E0_value>  (4) 
-298906.1097669466

>  <E0_units>  (4) 
kJ/mol

>  <thermo_class>  (4) 
NASA

>  <Cp0_value>  (4) 
33.257888

>  <Cp0_units>  (4) 
J/(mol*K)

>  <CpInf_value>  (4) 
58.201304

>  <CpInf_units>  (4) 
J/(mol*K)

>  <Tmin_value>  (4) 
10.0

>  <Tmin_units>  (4) 
K

>  <Tmax_value>  (4) 
3000.0

>  <Tmax_units>  (4) 
K

>  <polynomials>  (4) 
[{"name": "polynomial1", "class": "NASAPolynomial", "Tmin_value": 10.0, "Tmin_units": "K", "Tmax_value": 629.0512000912413, "Tmax_units": "K", "coeffs": [4.014103920677687, -0.0008325177412546771, 4.56533661555264e-06, 1.8819795119905897e-10, -2.6568593264983558e-12, -35950101.832157195, 4.133224859238685]}, {"name": "polynomial2", "class": "NASAPolynomial", "Tmin_value": 629.0512000912413, "Tmin_units": "K", "Tmax_value": 3000.0, "Tmax_units": "K", "coeffs": [2.717846744139833, 0.004696343713952912, -2.1474038690921783e-06, 4.4431900823295533e-10, -3.3105849141203275e-14, -35949885.05732429, 10.212818915979941]}]

>  <H298_value>  (4) 
-71437.89414253001

>  <H298_units>  (4) 
kcal/mol

>  <S298_value>  (4) 
53.561160888021874

>  <S298_units>  (4) 
cal/(mol*K)

>  <Cp_T_value_list>  (4) 
[8.264373883909988, 8.655436400162051, 9.13449323941442, 9.646767267061598, 10.561037595886633, 11.283358011835716, 12.445242187326647, 13.007810956528619, 13.24258260421586]

>  <Cp_T_units>  (4) 
cal/(mol*K)

>  <T_list>  (4) 
[300.0, 400.0, 500.0, 600.0, 800.0, 1000.0, 1500.0, 2000.0, 2400.0]

>  <T_units>  (4) 
K

>  <yaml_path>  (4) 
/home/calvin/Dropbox/PersonalFolders/Calvin/ATLAS_Converged/NonRMG/rxn_3126/output/Species/rxn_3126_p2_sbr-CH-sbr=O/rxn_3126_p2_sbr-CH-sbr=O.yml

>  <frequencies_cm1>  (4) 
[1103.99149592576, 1953.28650633272, 2664.85039217644]

>  <ZPE_kJmol>  (4) 
34.22593822948542

>  <E_elec_kJmol>  (4) 
-298940.33570517605

>  <E0_minus_Eelec_plus_ZPE_kJmol>  (4) 
0.0

>  <rxn>  (4) 
rxn_3126

>  <species_type>  (4) 
p1

>  <species_folder>  (4) 
rxn_3126_p2_sbr-CH-sbr=O

>  <frequencies_cm1_list>  (4) 
[1103.99149592576, 1953.28650633272, 2664.85039217644]

>  <E0_kJmol>  (4) 
-298906

>  <H298_kJmol>  (4) 
-298896

$$$$

     RDKit          3D

  6  6  0  0  0  0  0  0  0  0999 V2000
    1.9594    0.0134   -0.3734 N   0  0  0  0  0  2  0  0  0  1  0  0
    0.7437    0.0051   -0.0788 C   0  0  0  0  0  0  0  0  0  2  0  0
   -0.0745    1.0868    0.0233 O   0  0  0  0  0  0  0  0  0  3  0  0
   -1.3223    0.5972    0.3682 N   0  0  0  0  0  0  0  0  0  4  0  0
   -1.2899   -0.6150    0.4676 N   0  0  0  0  0  0  0  0  0  5  0  0
   -0.0165   -1.0874    0.2015 O   0  0  0  0  0  0  0  0  0  6  0  0
  1  2  1  0
  2  3  1  0
  2  6  1  0
  3  4  1  0
  4  5  1  0
  5  6  1  0
M  RAD  1   1   2
M  END
>  <rmg_smiles>  (5) 
[N][C]1O[N][N]O1

>  <rmg_adjacency_list>  (5) 
multiplicity 2
1 O u0 p2 c0 {3,S} {6,S}
2 O u0 p2 c0 {4,S} {6,S}
3 N u0 p1 c0 {1,S} {4,S}
4 N u0 p1 c0 {2,S} {3,S}
5 N u1 p2 c0 {6,S}
6 C u0 p0 c0 {1,S} {2,S} {5,S}


>  <multiplicity>  (5) 
2

>  <reaction>  (5) 
rxn_3126

>  <type>  (5) 
r2

>  <role_mapnums>  (5) 
{}

>  <role_mapidx>  (5) 
{}

>  <ordered_mapped_smiles>  (5) 
[NH:1][CH:2]1[O:3][NH:4][NH:5][O:6]1

>  <level_of_theory>  (5) 
wb97xd/def2tzvp

>  <lot_method>  (5) 
wb97xd

>  <lot_basis>  (5) 
def2tzvp

>  <spin_multiplicity>  (5) 
2.0

>  <optical_isomers>  (5) 
1.0

>  <modes>  (5) 
IdealGasTranslation(mass=(85.999, 'amu')),         NonlinearRotor(             inertia = ([48.4503, 114.569, 163.019

>  <frequency_value>  (5) 
unknown

>  <frequency_units>  (5) 
unknown

>  <frequency_list>  (5) 
unknown

>  <arkane_path>  (5) 
/home/calvin/Dropbox/PersonalFolders/Calvin/ATLAS_Converged/NonRMG/rxn_3126/output/Species/rxn_3126_r1_sbr-N-sbr=c1onno1/arkane/output.py

>  <path_exists>  (5) 
True

>  <E0_value>  (5) 
-925766.1233507326

>  <E0_units>  (5) 
kJ/mol

>  <thermo_class>  (5) 
NASA

>  <Cp0_value>  (5) 
33.257888

>  <Cp0_units>  (5) 
J/(mol*K)

>  <CpInf_value>  (5) 
133.031552

>  <CpInf_units>  (5) 
J/(mol*K)

>  <Tmin_value>  (5) 
10.0

>  <Tmin_units>  (5) 
K

>  <Tmax_value>  (5) 
3000.0

>  <Tmax_units>  (5) 
K

>  <polynomials>  (5) 
[{"name": "polynomial1", "class": "NASAPolynomial", "Tmin_value": 10.0, "Tmin_units": "K", "Tmax_value": 616.0864984642515, "Tmax_units": "K", "coeffs": [3.94812055354869, 0.002870632430470056, 6.601813711413239e-05, -1.1874693803665765e-07, 6.345849341330536e-11, -111343943.32258263, 9.377120967783604]}, {"name": "polynomial2", "class": "NASAPolynomial", "Tmin_value": 616.0864984642515, "Tmin_units": "K", "Tmax_value": 3000.0, "Tmax_units": "K", "coeffs": [2.4544566455499175, 0.02517036301302165, -1.8957852591200607e-05, 6.406820502487897e-09, -7.999640326918053e-13, -111343998.43927236, 13.91872622116066]}]

>  <H298_value>  (5) 
-221260.06538606877

>  <H298_units>  (5) 
kcal/mol

>  <S298_value>  (5) 
69.02430482099071

>  <S298_units>  (5) 
cal/(mol*K)

>  <Cp_T_value_list>  (5) 
[16.01447807468723, 19.24412536395936, 21.88065311931888, 23.870148628394773, 26.6491311769416, 28.365034926557463, 30.06252774055981, 30.64056177383133, 31.185424153668]

>  <Cp_T_units>  (5) 
cal/(mol*K)

>  <T_list>  (5) 
[300.0, 400.0, 500.0, 600.0, 800.0, 1000.0, 1500.0, 2000.0, 2400.0]

>  <T_units>  (5) 
K

>  <yaml_path>  (5) 
/home/calvin/Dropbox/PersonalFolders/Calvin/ATLAS_Converged/NonRMG/rxn_3126/output/Species/rxn_3126_r1_sbr-N-sbr=c1onno1/rxn_3126_r1_sbr-N-sbr=c1onno1.yml

>  <frequencies_cm1>  (5) 
[203.66105062056, 421.06293886643994, 625.6235645639199, 691.3131461350399, 746.0704870767199, 784.21659052932, 934.89884940608, 1008.3206564475199, 1041.0761764239198, 1163.2398452667198, 1617.8480074213599, 1768.29678879724]

>  <ZPE_kJmol>  (5) 
65.82829353267302

>  <E_elec_kJmol>  (5) 
-925831.9516442652

>  <E0_minus_Eelec_plus_ZPE_kJmol>  (5) 
0.0

>  <rxn>  (5) 
rxn_3126

>  <species_type>  (5) 
r0

>  <species_folder>  (5) 
rxn_3126_r1_sbr-N-sbr=c1onno1

>  <frequencies_cm1_list>  (5) 
[203.66105062056, 421.06293886643994, 625.6235645639199, 691.3131461350399, 746.0704870767199, 784.21659052932, 934.89884940608, 1008.3206564475199, 1041.0761764239198, 1163.2398452667198, 1617.8480074213599, 1768.29678879724]

>  <E0_kJmol>  (5) 
-925766

>  <H298_kJmol>  (5) 
-925752

$$$$
