
     RDKit          3D

  5  4  0  0  0  0  0  0  0  0999 V2000
   -0.4057   -0.4308   -0.1889 C   0  0  0  0  0  0  0  0  0  1  0  0
    0.4644    0.4052    0.1497 N   0  0  0  0  0  0  0  0  0  2  0  0
   -1.4360   -0.4013    0.1814 H   0  0  0  0  0  0  0  0  0  3  0  0
   -0.1372   -1.2294   -0.8836 H   0  0  0  0  0  0  0  0  0  4  0  0
   -0.0025    1.0637    0.8054 H   0  0  0  0  0  0  0  0  0  5  0  0
  1  3  1  0
  1  4  1  0
  1  2  1  0
  2  5  1  0
M  END
>  <rmg_smiles>  (1) 
[CH2][NH]

>  <rmg_adjacency_list>  (1) 
1 N u0 p1 c0 {2,S} {5,S}
2 C u0 p0 c0 {1,S} {3,S} {4,S}
3 H u0 p0 c0 {2,S}
4 H u0 p0 c0 {2,S}
5 H u0 p0 c0 {1,S}


>  <multiplicity>  (1) 
1

>  <reaction>  (1) 
rxn_671

>  <type>  (1) 
r1h

>  <role_mapnums>  (1) 
{"r1h_a": 2, "r1h_h": 5}

>  <role_mapidx>  (1) 
{"r1h_a": 1, "r1h_h": 4}

>  <ordered_mapped_smiles>  (1) 
[CH:1]([NH:2][H:5])([H:3])[H:4]

>  <mol_properties>  (1) 
{"1": {"label": "donator", "atom_type": "N3s"}, "4": {"label": "d_hydrogen", "atom_type": "H0"}}

>  <level_of_theory>  (1) 
wb97xd/def2tzvp

>  <lot_method>  (1) 
wb97xd

>  <lot_basis>  (1) 
def2tzvp

>  <spin_multiplicity>  (1) 
1.0

>  <optical_isomers>  (1) 
1.0

>  <modes>  (1) 
IdealGasTranslation(mass=(29.0266, 'amu')),         NonlinearRotor(             inertia = ([2.54329, 14.3364, 16.8797

>  <frequency_value>  (1) 
unknown

>  <frequency_units>  (1) 
unknown

>  <frequency_list>  (1) 
unknown

>  <arkane_path>  (1) 
/home/calvin/Dropbox/PersonalFolders/Calvin/HAb_Converged/rxn_671/output/Species/rxn_671_C=N/arkane/output.py

>  <path_exists>  (1) 
True

>  <E0_value>  (1) 
-248356.34423816652

>  <E0_units>  (1) 
kJ/mol

>  <thermo_class>  (1) 
NASA

>  <Cp0_value>  (1) 
33.257888

>  <Cp0_units>  (1) 
J/(mol*K)

>  <CpInf_value>  (1) 
108.088136

>  <CpInf_units>  (1) 
J/(mol*K)

>  <Tmin_value>  (1) 
10.0

>  <Tmin_units>  (1) 
K

>  <Tmax_value>  (1) 
3000.0

>  <Tmax_units>  (1) 
K

>  <polynomials>  (1) 
[{"name": "polynomial1", "class": "NASAPolynomial", "Tmin_value": 10.0, "Tmin_units": "K", "Tmax_value": 929.7245041416248, "Tmax_units": "K", "coeffs": [4.082145433180602, -0.004843975621351913, 3.06182483299597e-05, -3.0748398747364916e-08, 1.005203482703049e-11, -29870371.356622625, 4.365827516701529]}, {"name": "polynomial2", "class": "NASAPolynomial", "Tmin_value": 929.7245041416248, "Tmin_units": "K", "Tmax_value": 3000.0, "Tmax_units": "K", "coeffs": [0.8877926126409245, 0.013678157391694009, -6.975215360748043e-06, 1.7369713544725003e-09, -1.698199001818517e-13, -29869983.92454052, 18.433203146604594]}]

>  <H298_value>  (1) 
-59356.18051805212

>  <H298_units>  (1) 
kcal/mol

>  <S298_value>  (1) 
54.2244639708233

>  <S298_units>  (1) 
cal/(mol*K)

>  <Cp_T_value_list>  (1) 
[9.2123113963801, 10.597592405896666, 12.120811126511391, 13.631082115641764, 16.248944756592767, 18.198610788717026, 21.289657079468707, 22.89639137582938, 23.679165475597802]

>  <Cp_T_units>  (1) 
cal/(mol*K)

>  <T_list>  (1) 
[300.0, 400.0, 500.0, 600.0, 800.0, 1000.0, 1500.0, 2000.0, 2400.0]

>  <T_units>  (1) 
K

>  <yaml_path>  (1) 
/home/calvin/Dropbox/PersonalFolders/Calvin/HAb_Converged/rxn_671/output/Species/rxn_671_C=N/rxn_671_C=N.yml

>  <frequencies_cm1>  (1) 
[1070.7758879329199, 1100.41379657404, 1160.96000614048, 1358.81158718032, 1481.75122536428, 1720.3789652342798, 3005.1987855916, 3102.24988911916, 3440.05749796592]

>  <ZPE_kJmol>  (1) 
104.3179698886586

>  <E_elec_kJmol>  (1) 
-248460.6622080552

>  <E0_minus_Eelec_plus_ZPE_kJmol>  (1) 
0.0

>  <rxn>  (1) 
rxn_671

>  <species_type>  (1) 
r1

>  <species_folder>  (1) 
rxn_671_C=N

>  <frequencies_cm1_list>  (1) 
[1070.7758879329199, 1100.41379657404, 1160.96000614048, 1358.81158718032, 1481.75122536428, 1720.3789652342798, 3005.1987855916, 3102.24988911916, 3440.05749796592]

>  <E0_kJmol>  (1) 
-248356

>  <H298_kJmol>  (1) 
-248346

$$$$

     RDKit          3D

  4  3  0  0  0  0  0  0  0  0999 V2000
   -0.0913   -0.0097    0.0235 N   0  0  0  0  0  0  0  0  0  1  0  0
    0.4865   -0.0187    0.8675 H   0  0  0  0  0  0  0  0  0  2  0  0
    0.0676    0.9197   -0.3731 H   0  0  0  0  0  0  0  0  0  3  0  0
    0.5013   -0.5662   -0.5975 H   0  0  0  0  0  0  0  0  0  4  0  0
  1  3  1  0
  1  2  1  0
  1  4  1  0
M  END
>  <rmg_smiles>  (2) 
N

>  <rmg_adjacency_list>  (2) 
1 N u0 p1 c0 {2,S} {3,S} {4,S}
2 H u0 p0 c0 {1,S}
3 H u0 p0 c0 {1,S}
4 H u0 p0 c0 {1,S}


>  <multiplicity>  (2) 
1

>  <reaction>  (2) 
rxn_671

>  <type>  (2) 
r2h

>  <role_mapnums>  (2) 
{"r2h_a": 1, "r2h_h": 4}

>  <role_mapidx>  (2) 
{"r2h_a": 0, "r2h_h": 3}

>  <ordered_mapped_smiles>  (2) 
[N:1]([H:2])([H:3])[H:4]

>  <mol_properties>  (2) 
{"0": {"label": "acceptor", "atom_type": "N3s"}, "3": {"label": "a_hydrogen", "atom_type": "H0"}}

>  <level_of_theory>  (2) 
wb97xd/def2tzvp

>  <lot_method>  (2) 
wb97xd

>  <lot_basis>  (2) 
def2tzvp

>  <spin_multiplicity>  (2) 
1.0

>  <optical_isomers>  (2) 
1.0

>  <modes>  (2) 
IdealGasTranslation(mass=(17.0266, 'amu')),         NonlinearRotor(             inertia = ([1.67808, 1.67808, 2.6816

>  <frequency_value>  (2) 
unknown

>  <frequency_units>  (2) 
unknown

>  <frequency_list>  (2) 
unknown

>  <arkane_path>  (2) 
/home/calvin/Dropbox/PersonalFolders/Calvin/HAb_Converged/rxn_671/output/Species/rxn_671_N/arkane/output.py

>  <path_exists>  (2) 
True

>  <E0_value>  (2) 
-148421.26364269105

>  <E0_units>  (2) 
kJ/mol

>  <thermo_class>  (2) 
NASA

>  <Cp0_value>  (2) 
33.257888

>  <Cp0_units>  (2) 
J/(mol*K)

>  <CpInf_value>  (2) 
83.14472

>  <CpInf_units>  (2) 
J/(mol*K)

>  <Tmin_value>  (2) 
10.0

>  <Tmin_units>  (2) 
K

>  <Tmax_value>  (2) 
3000.0

>  <Tmax_units>  (2) 
K

>  <polynomials>  (2) 
[{"name": "polynomial1", "class": "NASAPolynomial", "Tmin_value": 10.0, "Tmin_units": "K", "Tmax_value": 661.0804506617714, "Tmax_units": "K", "coeffs": [4.018065952450781, -0.0010594462951532533, 7.0068770418278475e-06, -1.9448375260802637e-09, -1.6903909714968277e-12, -17850955.574744247, 0.2630280077390306]}, {"name": "polynomial2", "class": "NASAPolynomial", "Tmin_value": 661.0804506617714, "Tmin_units": "K", "Tmax_value": 3000.0, "Tmax_units": "K", "coeffs": [2.4516557563251014, 0.005556461768624229, -1.5108534204519605e-06, 9.614541938565228e-11, 1.4295840769984746e-14, -17850685.932123393, 7.644744620409682]}]

>  <H298_value>  (2) 
-35471.13537017314

>  <H298_units>  (2) 
kcal/mol

>  <S298_value>  (2) 
45.962578608532034

>  <S298_units>  (2) 
cal/(mol*K)

>  <Cp_T_value_list>  (2) 
[8.474736662297328, 9.037108019992646, 9.720038934265556, 10.464061758445943, 11.893353433479012, 13.130875057040445, 15.468001463496948, 16.92913622142614, 17.662419085416545]

>  <Cp_T_units>  (2) 
cal/(mol*K)

>  <T_list>  (2) 
[300.0, 400.0, 500.0, 600.0, 800.0, 1000.0, 1500.0, 2000.0, 2400.0]

>  <T_units>  (2) 
K

>  <yaml_path>  (2) 
/home/calvin/Dropbox/PersonalFolders/Calvin/HAb_Converged/rxn_671/output/Species/rxn_671_N/rxn_671_N.yml

>  <frequencies_cm1>  (2) 
[1006.65197901476, 1653.7074047623996, 1654.02328608712, 3472.52460455888, 3599.6737047439997, 3600.5252109236794]

>  <ZPE_kJmol>  (2) 
89.64282786797604

>  <E_elec_kJmol>  (2) 
-148510.906470559

>  <E0_minus_Eelec_plus_ZPE_kJmol>  (2) 
0.0

>  <rxn>  (2) 
rxn_671

>  <species_type>  (2) 
p0

>  <species_folder>  (2) 
rxn_671_N

>  <frequencies_cm1_list>  (2) 
[1006.65197901476, 1653.7074047623996, 1654.02328608712, 3472.52460455888, 3599.6737047439997, 3600.5252109236794]

>  <E0_kJmol>  (2) 
-148421

>  <H298_kJmol>  (2) 
-148411

$$$$

     RDKit          3D

  8  6  0  0  0  0  0  0  0  0999 V2000
   -0.5365    1.2896    0.8622 N   0  0  0  0  0  2  0  0  0  1  0  0
    0.0413    1.2806    1.7063 H   0  0  0  0  0  0  0  0  0  2  0  0
   -0.3777    2.2191    0.4656 H   0  0  0  0  0  0  0  0  0  3  0  0
   -0.0873   -1.0275   -1.0421 C   0  0  0  0  0  0  0  0  0  4  0  0
    0.7828   -0.1915   -0.7036 N   0  0  0  0  0  0  0  0  0  5  0  0
   -1.1177   -0.9980   -0.6719 H   0  0  0  0  0  0  0  0  0  6  0  0
    0.1812   -1.8261   -1.7368 H   0  0  0  0  0  0  0  0  0  7  0  0
    0.2688    0.5333    0.0182 H   0  0  0  0  0  0  0  0  0  8  0  0
  1  2  1  0
  1  3  1  0
  4  5  1  0
  4  7  1  0
  4  6  1  0
  5  8  1  0
M  RAD  1   1   2
M  END
>  <rmg_smiles>  (3) 
[CH2][NH].[NH2]

>  <rmg_adjacency_list>  (3) 
multiplicity 2
1 N u0 p1 c0 {3,S} {6,S}
2 N u1 p1 c0 {7,S} {8,S}
3 C u0 p0 c0 {1,S} {4,S} {5,S}
4 H u0 p0 c0 {3,S}
5 H u0 p0 c0 {3,S}
6 H u0 p0 c0 {1,S}
7 H u0 p0 c0 {2,S}
8 H u0 p0 c0 {2,S}


>  <multiplicity>  (3) 
2

>  <reaction>  (3) 
rxn_671

>  <type>  (3) 
ts

>  <role_mapnums>  (3) 
{"*2": 8, "*1": 5, "*3": 1, "*0": 4, "*4": 2}

>  <role_mapidx>  (3) 
{"*2": 7, "*1": 4, "*3": 0, "*0": 3, "*4": 1}

>  <ordered_mapped_smiles>  (3) 
[N:1]([H:2])[H:3].[CH:4]([NH:5][H:8])([H:6])[H:7]

>  <mol_properties>  (3) 
{"0": {"label": "*3", "atom_type": "N3s"}, "1": {"label": "*4", "atom_type": "H0"}, "3": {"label": "*0", "atom_type": "Cs"}, "4": {"label": "*1", "atom_type": "N3s"}, "7": {"label": "*2", "atom_type": "H0"}}

>  <level_of_theory>  (3) 
wb97xd/def2tzvp

>  <lot_method>  (3) 
wb97xd

>  <lot_basis>  (3) 
def2tzvp

>  <spin_multiplicity>  (3) 
2.0

>  <optical_isomers>  (3) 
1.0

>  <modes>  (3) 
IdealGasTranslation(mass=(45.0453, 'amu')),         NonlinearRotor(             inertia = ([12.39, 84.9946, 94.7689

>  <frequency_value>  (3) 
-1460.59

>  <frequency_units>  (3) 
cm^-1

>  <frequency_list>  (3) 
unknown

>  <arkane_path>  (3) 
/home/calvin/Dropbox/PersonalFolders/Calvin/HAb_Converged/rxn_671/output/rxns/TS0/arkane/output.py

>  <path_exists>  (3) 
True

>  <E0_value>  (3) 
-395017.0

>  <E0_units>  (3) 
kJ/mol

>  <thermo_class>  (3) 
unknown

>  <Cp0_value>  (3) 
unknown

>  <Cp0_units>  (3) 
unknown

>  <CpInf_value>  (3) 
unknown

>  <CpInf_units>  (3) 
unknown

>  <Tmin_value>  (3) 
unknown

>  <Tmin_units>  (3) 
unknown

>  <Tmax_value>  (3) 
unknown

>  <Tmax_units>  (3) 
unknown

>  <polynomials>  (3) 
unknown

>  <H298_value>  (3) 
unknown

>  <H298_units>  (3) 
unknown

>  <S298_value>  (3) 
unknown

>  <S298_units>  (3) 
unknown

>  <Cp_T_value_list>  (3) 
unknown

>  <Cp_T_units>  (3) 
unknown

>  <T_list>  (3) 
unknown

>  <T_units>  (3) 
unknown

>  <yaml_path>  (3) 
unknown

>  <frequencies_cm1>  (3) 
unknown

>  <ZPE_kJmol>  (3) 
unknown

>  <E_elec_kJmol>  (3) 
unknown

>  <E0_minus_Eelec_plus_ZPE_kJmol>  (3) 
unknown

>  <rxn>  (3) 
unknown

>  <species_type>  (3) 
unknown

>  <species_folder>  (3) 
unknown

>  <frequencies_cm1_list>  (3) 
[]

>  <ts_imag_freq_cm1>  (3) 
-1478.3344

>  <ts_freq_out_path>  (3) 
/home/calvin/Dropbox/PersonalFolders/Calvin/HAb_Converged/rxn_671/output/rxns/TS0/geometry/freq.out

>  <E0_kJmol>  (3) 
-395017

>  <H298_kJmol>  (3) 
unknown

$$$$

     RDKit          3D

  4  3  0  0  0  0  0  0  0  0999 V2000
   -0.0235    0.0026    0.0007 C   0  0  0  0  0  0  0  0  0  1  0  0
    1.2046   -0.1325   -0.0372 N   0  0  0  0  0  2  0  0  0  2  0  0
   -0.6930   -0.8666    0.0185 H   0  0  0  0  0  0  0  0  0  3  0  0
   -0.4880    0.9965    0.0179 H   0  0  0  0  0  0  0  0  0  4  0  0
  1  3  1  0
  1  4  1  0
  1  2  1  0
M  RAD  1   2   2
M  END
>  <rmg_smiles>  (4) 
[CH2][N]

>  <rmg_adjacency_list>  (4) 
multiplicity 2
1 N u1 p2 c0 {2,S}
2 C u0 p0 c0 {1,S} {3,S} {4,S}
3 H u0 p0 c0 {2,S}
4 H u0 p0 c0 {2,S}


>  <multiplicity>  (4) 
2

>  <reaction>  (4) 
rxn_671

>  <type>  (4) 
r1

>  <role_mapnums>  (4) 
{}

>  <role_mapidx>  (4) 
{}

>  <ordered_mapped_smiles>  (4) 
[CH:1]([NH:2])([H:3])[H:4]

>  <level_of_theory>  (4) 
wb97xd/def2tzvp

>  <lot_method>  (4) 
wb97xd

>  <lot_basis>  (4) 
def2tzvp

>  <spin_multiplicity>  (4) 
2.0

>  <optical_isomers>  (4) 
1.0

>  <modes>  (4) 
IdealGasTranslation(mass=(28.0187, 'amu')),         NonlinearRotor(             inertia = ([1.77036, 12.7332, 14.5036

>  <frequency_value>  (4) 
unknown

>  <frequency_units>  (4) 
unknown

>  <frequency_list>  (4) 
unknown

>  <arkane_path>  (4) 
/home/calvin/Dropbox/PersonalFolders/Calvin/HAb_Converged/rxn_671/output/Species/rxn_671_C=[N]/arkane/output.py

>  <path_exists>  (4) 
True

>  <E0_value>  (4) 
-246684.5521079164

>  <E0_units>  (4) 
kJ/mol

>  <thermo_class>  (4) 
NASA

>  <Cp0_value>  (4) 
33.257888

>  <Cp0_units>  (4) 
J/(mol*K)

>  <CpInf_value>  (4) 
83.14472

>  <CpInf_units>  (4) 
J/(mol*K)

>  <Tmin_value>  (4) 
10.0

>  <Tmin_units>  (4) 
K

>  <Tmax_value>  (4) 
3000.0

>  <Tmax_units>  (4) 
K

>  <polynomials>  (4) 
[{"name": "polynomial1", "class": "NASAPolynomial", "Tmin_value": 10.0, "Tmin_units": "K", "Tmax_value": 940.7115147014066, "Tmax_units": "K", "coeffs": [4.066582322176055, -0.002945297737503203, 2.0923665491113676e-05, -2.1725859678267992e-08, 7.260528712319913e-12, -29669301.271777656, 3.887653957496315]}, {"name": "polynomial2", "class": "NASAPolynomial", "Tmin_value": 940.7115147014066, "Tmin_units": "K", "Tmax_value": 3000.0, "Tmax_units": "K", "coeffs": [2.417736019426672, 0.008438496046430401, -4.2007115812525825e-06, 1.0206571750372709e-09, -9.76792644324066e-14, -29669184.533969242, 10.713238634198367]}]

>  <H298_value>  (4) 
-58956.59162286701

>  <H298_units>  (4) 
kcal/mol

>  <S298_value>  (4) 
53.51422667564984

>  <S298_units>  (4) 
cal/(mol*K)

>  <Cp_T_value_list>  (4) 
[9.018608748710106, 9.998955851352573, 11.054631860789643, 12.082418393933246, 13.814587537277745, 15.06004127844482, 17.038498756224165, 18.072194366523956, 18.56613061937485]

>  <Cp_T_units>  (4) 
cal/(mol*K)

>  <T_list>  (4) 
[300.0, 400.0, 500.0, 600.0, 800.0, 1000.0, 1500.0, 2000.0, 2400.0]

>  <T_units>  (4) 
K

>  <yaml_path>  (4) 
/home/calvin/Dropbox/PersonalFolders/Calvin/HAb_Converged/rxn_671/output/Species/rxn_671_C=[N]/rxn_671_C=N.yml

>  <frequencies_cm1>  (4) 
[931.60269645248, 995.74033934128, 1367.3953188303199, 1729.09316960536, 2962.5273388131195, 3028.35426009064]

>  <ZPE_kJmol>  (4) 
65.8826340447903

>  <E_elec_kJmol>  (4) 
-246750.4347419612

>  <E0_minus_Eelec_plus_ZPE_kJmol>  (4) 
0.0

>  <rxn>  (4) 
rxn_671

>  <species_type>  (4) 
p1

>  <species_folder>  (4) 
rxn_671_C=[N]

>  <frequencies_cm1_list>  (4) 
[931.60269645248, 995.74033934128, 1367.3953188303199, 1729.09316960536, 2962.5273388131195, 3028.35426009064]

>  <E0_kJmol>  (4) 
-246685

>  <H298_kJmol>  (4) 
-246674

$$$$

     RDKit          3D

  3  2  0  0  0  0  0  0  0  0999 V2000
    0.0002    0.4233    0.0000 N   0  0  0  0  0  2  0  0  0  1  0  0
   -0.8051   -0.2112    0.0000 H   0  0  0  0  0  0  0  0  0  2  0  0
    0.8049   -0.2121    0.0000 H   0  0  0  0  0  0  0  0  0  3  0  0
  1  3  1  0
  1  2  1  0
M  RAD  1   1   2
M  END
>  <rmg_smiles>  (5) 
[NH2]

>  <rmg_adjacency_list>  (5) 
multiplicity 2
1 N u1 p1 c0 {2,S} {3,S}
2 H u0 p0 c0 {1,S}
3 H u0 p0 c0 {1,S}


>  <multiplicity>  (5) 
2

>  <reaction>  (5) 
rxn_671

>  <type>  (5) 
r2

>  <role_mapnums>  (5) 
{}

>  <role_mapidx>  (5) 
{}

>  <ordered_mapped_smiles>  (5) 
[N:1]([H:2])[H:3]

>  <level_of_theory>  (5) 
wb97xd/def2tzvp

>  <lot_method>  (5) 
wb97xd

>  <lot_basis>  (5) 
def2tzvp

>  <spin_multiplicity>  (5) 
2.0

>  <optical_isomers>  (5) 
1.0

>  <modes>  (5) 
IdealGasTranslation(mass=(16.0187, 'amu')),         NonlinearRotor(             inertia = ([0.710442, 1.30616, 2.0166

>  <frequency_value>  (5) 
unknown

>  <frequency_units>  (5) 
unknown

>  <frequency_list>  (5) 
unknown

>  <arkane_path>  (5) 
/home/calvin/Dropbox/PersonalFolders/Calvin/HAb_Converged/rxn_671/output/Species/rxn_671_[NH2]/arkane/output.py

>  <path_exists>  (5) 
True

>  <E0_value>  (5) 
-146665.82219964045

>  <E0_units>  (5) 
kJ/mol

>  <thermo_class>  (5) 
NASA

>  <Cp0_value>  (5) 
33.257888

>  <Cp0_units>  (5) 
J/(mol*K)

>  <CpInf_value>  (5) 
58.201304

>  <CpInf_units>  (5) 
J/(mol*K)

>  <Tmin_value>  (5) 
10.0

>  <Tmin_units>  (5) 
K

>  <Tmax_value>  (5) 
3000.0

>  <Tmax_units>  (5) 
K

>  <polynomials>  (5) 
[{"name": "polynomial1", "class": "NASAPolynomial", "Tmin_value": 10.0, "Tmin_units": "K", "Tmax_value": 785.762025652844, "Tmax_units": "K", "coeffs": [4.006150952110655, -0.0003084550413445115, 1.1919167642356156e-06, 1.4835268864917173e-09, -1.3501682773251204e-12, -17639824.212471265, 0.5976393950121619]}, {"name": "polynomial2", "class": "NASAPolynomial", "Tmin_value": 785.762025652844, "Tmin_units": "K", "Tmax_value": 3000.0, "Tmax_units": "K", "coeffs": [3.2706683171239272, 0.0018199930208633956, 2.1290206946552888e-07, -3.0253090271967345e-10, 5.0619779589579903e-14, -17639658.754270043, 4.285961361161453]}]

>  <H298_value>  (5) 
-35051.60272998557

>  <H298_units>  (5) 
kcal/mol

>  <S298_value>  (5) 
46.48569697774424

>  <S298_units>  (5) 
cal/(mol*K)

>  <Cp_T_value_list>  (5) 
[8.048197877278941, 8.214827565402967, 8.447531305278195, 8.735020460220388, 9.397018833396599, 10.038676259975528, 11.356703010007145, 12.225159042044737, 12.643051079877377]

>  <Cp_T_units>  (5) 
cal/(mol*K)

>  <T_list>  (5) 
[300.0, 400.0, 500.0, 600.0, 800.0, 1000.0, 1500.0, 2000.0, 2400.0]

>  <T_units>  (5) 
K

>  <yaml_path>  (5) 
/home/calvin/Dropbox/PersonalFolders/Calvin/HAb_Converged/rxn_671/output/Species/rxn_671_[NH2]/rxn_671_NH2.yml

>  <frequencies_cm1>  (5) 
[1514.64408504708, 3360.6064778135196, 3454.89705324244]

>  <ZPE_kJmol>  (5) 
49.8253618406256

>  <E_elec_kJmol>  (5) 
-146715.64756148108

>  <E0_minus_Eelec_plus_ZPE_kJmol>  (5) 
0.0

>  <rxn>  (5) 
rxn_671

>  <species_type>  (5) 
r0

>  <species_folder>  (5) 
rxn_671_[NH2]

>  <frequencies_cm1_list>  (5) 
[1514.64408504708, 3360.6064778135196, 3454.89705324244]

>  <E0_kJmol>  (5) 
-146666

>  <H298_kJmol>  (5) 
-146656

$$$$
