
     RDKit          3D

  9  8  0  0  0  0  0  0  0  0999 V2000
   -0.1757    0.4635   -1.1696 C   0  0  0  0  0  0  0  0  0  1  0  0
   -0.0710   -0.4114   -0.1667 C   0  0  0  0  0  0  0  0  0  2  0  0
    0.2552   -0.0781    1.2146 C   0  0  0  0  0  0  0  0  0  3  0  0
   -0.4632    0.1516   -2.1652 H   0  0  0  0  0  0  0  0  0  4  0  0
    0.0344    1.5176   -1.0225 H   0  0  0  0  0  0  0  0  0  5  0  0
   -0.2928   -1.4560   -0.3714 H   0  0  0  0  0  0  0  0  0  6  0  0
   -0.6742    0.0355    1.7692 H   0  0  0  0  0  0  0  0  0  7  0  0
    0.7194    0.8972    1.3524 H   0  0  0  0  0  0  0  0  0  8  0  0
    0.7644   -0.8595    1.7743 H   0  0  0  0  0  0  0  0  0  9  0  0
  1  5  1  0
  1  4  1  0
  1  2  1  0
  2  6  1  0
  2  3  1  0
  3  8  1  0
  3  7  1  0
  3  9  1  0
M  END
>  <rmg_smiles>  (1) 
[CH2][CH]C

>  <rmg_adjacency_list>  (1) 
1 C u0 p0 c0 {2,S} {4,S} {5,S} {6,S}
2 C u0 p0 c0 {1,S} {3,S} {7,S}
3 C u0 p0 c0 {2,S} {8,S} {9,S}
4 H u0 p0 c0 {1,S}
5 H u0 p0 c0 {1,S}
6 H u0 p0 c0 {1,S}
7 H u0 p0 c0 {2,S}
8 H u0 p0 c0 {3,S}
9 H u0 p0 c0 {3,S}


>  <multiplicity>  (1) 
1

>  <reaction>  (1) 
rxn_739

>  <type>  (1) 
r1h

>  <role_mapnums>  (1) 
{"r1h_a": 3, "r1h_h": 7}

>  <role_mapidx>  (1) 
{"r1h_a": 2, "r1h_h": 6}

>  <ordered_mapped_smiles>  (1) 
[CH:1]([CH:2]([C:3]([H:7])([H:8])[H:9])[H:6])([H:4])[H:5]

>  <mol_properties>  (1) 
{"2": {"label": "donator", "atom_type": "Cs"}, "6": {"label": "d_hydrogen", "atom_type": "H0"}}

>  <level_of_theory>  (1) 
wb97xd/def2tzvp

>  <lot_method>  (1) 
wb97xd

>  <lot_basis>  (1) 
def2tzvp

>  <spin_multiplicity>  (1) 
1.0

>  <optical_isomers>  (1) 
1.0

>  <modes>  (1) 
IdealGasTranslation(mass=(42.047, 'amu')),         NonlinearRotor(             inertia = ([10.7194, 53.9495, 61.5632

>  <frequency_value>  (1) 
unknown

>  <frequency_units>  (1) 
unknown

>  <frequency_list>  (1) 
unknown

>  <arkane_path>  (1) 
/home/calvin/Dropbox/PersonalFolders/Calvin/HAb_Converged/rxn_739/output/Species/rxn_739_C=CC/arkane/output.py

>  <path_exists>  (1) 
True

>  <E0_value>  (1) 
-309367.88070268225

>  <E0_units>  (1) 
kJ/mol

>  <thermo_class>  (1) 
NASA

>  <Cp0_value>  (1) 
33.257888

>  <Cp0_units>  (1) 
J/(mol*K)

>  <CpInf_value>  (1) 
207.8618

>  <CpInf_units>  (1) 
J/(mol*K)

>  <Tmin_value>  (1) 
10.0

>  <Tmin_units>  (1) 
K

>  <Tmax_value>  (1) 
3000.0

>  <Tmax_units>  (1) 
K

>  <polynomials>  (1) 
[{"name": "polynomial1", "class": "NASAPolynomial", "Tmin_value": 10.0, "Tmin_units": "K", "Tmax_value": 532.0577202057873, "Tmax_units": "K", "coeffs": [4.020103835302654, -0.0017074980479917085, 7.459046034705118e-05, -1.1023396025676474e-07, 5.3481197627967796e-11, -37208361.301710494, 6.986181334463051]}, {"name": "polynomial2", "class": "NASAPolynomial", "Tmin_value": 532.0577202057873, "Tmin_units": "K", "Tmax_value": 3000.0, "Tmax_units": "K", "coeffs": [-0.30507671788284774, 0.030809359218709958, -1.7083112014376123e-05, 4.633555316648191e-09, -4.924250044802513e-13, -37207901.05583462, 25.12344343354427]}]

>  <H298_value>  (1) 
-73937.54186756606

>  <H298_units>  (1) 
kcal/mol

>  <S298_value>  (1) 
63.24337268320408

>  <S298_units>  (1) 
cal/(mol*K)

>  <Cp_T_value_list>  (1) 
[15.257526344712856, 19.04881200484783, 22.609043962382263, 25.769394717679983, 30.960482554899503, 34.89991831876069, 40.970847866509764, 44.05802967631756, 45.61721763006197]

>  <Cp_T_units>  (1) 
cal/(mol*K)

>  <T_list>  (1) 
[300.0, 400.0, 500.0, 600.0, 800.0, 1000.0, 1500.0, 2000.0, 2400.0]

>  <T_units>  (1) 
K

>  <yaml_path>  (1) 
/home/calvin/Dropbox/PersonalFolders/Calvin/HAb_Converged/rxn_739/output/Species/rxn_739_C=CC/rxn_739_C=CC.yml

>  <frequencies_cm1>  (1) 
[200.09708523947998, 429.33078919172, 590.7049442117201, 925.49107951768, 943.8671322339999, 950.17102475776, 1024.49240687612, 1068.78446219012, 1186.6081963106801, 1322.3410281457998, 1395.89330790832, 1440.30896895808, 1465.7442825833598, 1480.7692464635202, 1719.664798761, 3008.0348505287598, 3066.795643912, 3091.69533268232, 3111.44478246264, 3123.9495627303595, 3201.2649504482397]

>  <ZPE_kJmol>  (1) 
207.83598829281505

>  <E_elec_kJmol>  (1) 
-309575.71669097507

>  <E0_minus_Eelec_plus_ZPE_kJmol>  (1) 
0.0

>  <rxn>  (1) 
rxn_739

>  <species_type>  (1) 
r0

>  <species_folder>  (1) 
rxn_739_C=CC

>  <frequencies_cm1_list>  (1) 
[200.09708523947998, 429.33078919172, 590.7049442117201, 925.49107951768, 943.8671322339999, 950.17102475776, 1024.49240687612, 1068.78446219012, 1186.6081963106801, 1322.3410281457998, 1395.89330790832, 1440.30896895808, 1465.7442825833598, 1480.7692464635202, 1719.664798761, 3008.0348505287598, 3066.795643912, 3091.69533268232, 3111.44478246264, 3123.9495627303595, 3201.2649504482397]

>  <E0_kJmol>  (1) 
-309368

>  <H298_kJmol>  (1) 
-309355

$$$$

     RDKit          3D

 25 26  0  0  0  0  0  0  0  0999 V2000
    2.1457    1.1811    0.3270 H   0  0  0  0  0  0  0  0  0  1  0  0
    1.2198    1.3981    0.8556 C   0  0  0  0  0  0  0  0  0  2  0  0
    0.5570    2.5110    0.0524 C   0  0  0  0  0  0  0  0  0  3  0  0
   -0.6455    1.8443   -0.6526 C   0  0  0  0  0  0  0  0  0  4  0  0
   -0.2827    0.3636   -0.6634 C   0  0  0  0  0  0  0  0  0  5  0  0
   -1.3695   -0.6655   -0.9140 C   0  0  0  0  0  0  0  0  0  6  0  0
   -0.7834   -2.0737   -0.7717 C   0  0  0  0  0  0  0  0  0  7  0  0
   -0.0752   -2.2807    0.5698 C   0  0  0  0  0  0  0  0  0  8  0  0
    0.9892   -1.2132    0.8390 C   0  0  0  0  0  0  0  0  0  9  0  0
    0.3620    0.1663    0.7099 C   0  0  0  0  0  0  0  0  0 10  0  0
    1.5881    1.6432    1.8497 H   0  0  0  0  0  0  0  0  0 11  0  0
    0.2525    3.3488    0.6828 H   0  0  0  0  0  0  0  0  0 12  0  0
    1.2546    2.9159   -0.6878 H   0  0  0  0  0  0  0  0  0 13  0  0
   -0.8255    2.2486   -1.6493 H   0  0  0  0  0  0  0  0  0 14  0  0
   -1.5583    1.9919   -0.0669 H   0  0  0  0  0  0  0  0  0 15  0  0
    0.5048    0.2187   -1.4145 H   0  0  0  0  0  0  0  0  0 16  0  0
   -2.1772   -0.5247   -0.1857 H   0  0  0  0  0  0  0  0  0 17  0  0
   -1.8104   -0.5388   -1.9061 H   0  0  0  0  0  0  0  0  0 18  0  0
   -0.0643   -2.2372   -1.5822 H   0  0  0  0  0  0  0  0  0 19  0  0
   -1.5674   -2.8243   -0.8953 H   0  0  0  0  0  0  0  0  0 20  0  0
   -0.8187   -2.2468    1.3739 H   0  0  0  0  0  0  0  0  0 21  0  0
    0.3727   -3.2765    0.6020 H   0  0  0  0  0  0  0  0  0 22  0  0
    1.4289   -1.3557    1.8296 H   0  0  0  0  0  0  0  0  0 23  0  0
    1.8024   -1.3109    0.1120 H   0  0  0  0  0  0  0  0  0 24  0  0
   -0.4467    0.2291    1.4583 H   0  0  0  0  0  0  0  0  0 25  0  0
  1  2  1  0
  2 11  1  0
  2  3  1  0
  2 10  1  0
  3  4  1  0
  3 13  1  0
  3 12  1  0
  4 14  1  0
  4  5  1  0
  4 15  1  0
  5 16  1  0
  5 10  1  0
  5  6  1  0
  6  7  1  0
  6 17  1  0
  6 18  1  0
  7 20  1  0
  7 19  1  0
  7  8  1  0
  8  9  1  0
  8 22  1  0
  8 21  1  0
  9 24  1  0
  9 10  1  0
  9 23  1  0
 10 25  1  0
M  END
>  <rmg_smiles>  (2) 
C1CCC2CCCC2C1

>  <rmg_adjacency_list>  (2) 
1  C u0 p0 c0 {2,S} {4,S} {5,S} {10,S}
2  C u0 p0 c0 {1,S} {3,S} {6,S} {11,S}
3  C u0 p0 c0 {2,S} {7,S} {12,S} {13,S}
4  C u0 p0 c0 {1,S} {7,S} {16,S} {17,S}
5  C u0 p0 c0 {1,S} {8,S} {18,S} {19,S}
6  C u0 p0 c0 {2,S} {9,S} {24,S} {25,S}
7  C u0 p0 c0 {3,S} {4,S} {14,S} {15,S}
8  C u0 p0 c0 {5,S} {9,S} {20,S} {21,S}
9  C u0 p0 c0 {6,S} {8,S} {22,S} {23,S}
10 H u0 p0 c0 {1,S}
11 H u0 p0 c0 {2,S}
12 H u0 p0 c0 {3,S}
13 H u0 p0 c0 {3,S}
14 H u0 p0 c0 {7,S}
15 H u0 p0 c0 {7,S}
16 H u0 p0 c0 {4,S}
17 H u0 p0 c0 {4,S}
18 H u0 p0 c0 {5,S}
19 H u0 p0 c0 {5,S}
20 H u0 p0 c0 {8,S}
21 H u0 p0 c0 {8,S}
22 H u0 p0 c0 {9,S}
23 H u0 p0 c0 {9,S}
24 H u0 p0 c0 {6,S}
25 H u0 p0 c0 {6,S}


>  <multiplicity>  (2) 
1

>  <reaction>  (2) 
rxn_739

>  <type>  (2) 
r2h

>  <role_mapnums>  (2) 
{"r2h_a": 2, "r2h_h": 1}

>  <role_mapidx>  (2) 
{"r2h_a": 1, "r2h_h": 0}

>  <ordered_mapped_smiles>  (2) 
[H:1][C:2]1([H:11])[C:3]([H:12])([H:13])[C:4]([H:14])([H:15])[C:5]2([H:16])[C:6]([H:17])([H:18])[C:7]([H:19])([H:20])[C:8]([H:21])([H:22])[C:9]([H:23])([H:24])[C:10]12[H:25]

>  <mol_properties>  (2) 
{"0": {"label": "a_hydrogen", "atom_type": "H0"}, "1": {"label": "acceptor", "atom_type": "Cs"}}

>  <level_of_theory>  (2) 
wb97xd/def2tzvp

>  <lot_method>  (2) 
wb97xd

>  <lot_basis>  (2) 
def2tzvp

>  <spin_multiplicity>  (2) 
1.0

>  <optical_isomers>  (2) 
2.0

>  <modes>  (2) 
IdealGasTranslation(mass=(124.125, 'amu')),         NonlinearRotor(             inertia = ([170.024, 375.242, 505.424

>  <frequency_value>  (2) 
unknown

>  <frequency_units>  (2) 
unknown

>  <frequency_list>  (2) 
unknown

>  <arkane_path>  (2) 
/home/calvin/Dropbox/PersonalFolders/Calvin/HAb_Converged/rxn_739/output/Species/rxn_739_C1CCC2CCCC2C1/arkane/output.py

>  <path_exists>  (2) 
True

>  <E0_value>  (2) 
-925233.0049241188

>  <E0_units>  (2) 
kJ/mol

>  <thermo_class>  (2) 
NASA

>  <Cp0_value>  (2) 
33.257888

>  <Cp0_units>  (2) 
J/(mol*K)

>  <CpInf_value>  (2) 
606.956456

>  <CpInf_units>  (2) 
J/(mol*K)

>  <Tmin_value>  (2) 
10.0

>  <Tmin_units>  (2) 
K

>  <Tmax_value>  (2) 
3000.0

>  <Tmax_units>  (2) 
K

>  <polynomials>  (2) 
[{"name": "polynomial1", "class": "NASAPolynomial", "Tmin_value": 10.0, "Tmin_units": "K", "Tmax_value": 492.86414085374884, "Tmax_units": "K", "coeffs": [4.007994789865864, -0.0014434969438387518, 0.0002774235318770471, -4.47143959124011e-07, 2.345687014006794e-10, -111279824.80461533, 12.742603075803766]}, {"name": "polynomial2", "class": "NASAPolynomial", "Tmin_value": 492.86414085374884, "Tmin_units": "K", "Tmax_value": 3000.0, "Tmax_units": "K", "coeffs": [-9.95853370242537, 0.11191389639895702, -6.759505783925652e-05, 1.9571966588871765e-08, -2.183492026273649e-12, -111278448.17509678, 70.24048730977755]}]

>  <H298_value>  (2) 
-221130.41480672767

>  <H298_units>  (2) 
kcal/mol

>  <S298_value>  (2) 
87.40258332007863

>  <S298_units>  (2) 
cal/(mol*K)

>  <Cp_T_value_list>  (2) 
[36.50534740058796, 50.089738669944325, 62.417515537946755, 73.12949241055418, 90.29515590280347, 102.83551087971135, 120.87161605712708, 129.42454969138163, 133.951878152645]

>  <Cp_T_units>  (2) 
cal/(mol*K)

>  <T_list>  (2) 
[300.0, 400.0, 500.0, 600.0, 800.0, 1000.0, 1500.0, 2000.0, 2400.0]

>  <T_units>  (2) 
K

>  <yaml_path>  (2) 
/home/calvin/Dropbox/PersonalFolders/Calvin/HAb_Converged/rxn_739/output/Species/rxn_739_C1CCC2CCCC2C1/rxn_739_C1CCC2CCCC2C1.yml

>  <frequencies_cm1>  (2) 
[79.74630052116, 161.44969185852, 192.46099756363998, 319.95344701476, 325.08995203411996, 337.32691987436, 425.16252910247994, 470.50523317043996, 497.06673238819997, 579.3538174777599, 623.59780389452, 769.3495673115199, 782.1839628746, 837.42199278868, 848.74565158136, 873.0204446875598, 907.5545138618398, 921.7142375916799, 922.5451428153999, 945.43967187228, 987.1978096031999, 1015.3867843418, 1044.03584709684, 1066.28487953364, 1072.4857672776, 1096.98030391404, 1116.2696656779199, 1122.75209982, 1142.3985448205199, 1202.0657802659998, 1207.82031396416, 1217.5508321625998, 1256.61711164808, 1262.63945777372, 1284.5314069738797, 1286.2687542598399, 1313.97704002604, 1316.9847795961998, 1320.6311488011202, 1339.9411115209598, 1339.9754464475598, 1365.2322184545199, 1368.74811493836, 1376.8580246012798, 1398.55083122716, 1401.5036349147601, 1472.50826312356, 1476.82072990452, 1478.06365424744, 1478.81215564732, 1486.92206531024, 1491.0628574582, 1506.3831017071197, 2950.4551786205598, 2962.34193020948, 2991.31374127456, 2991.7532283350397, 2996.8759993837602, 3001.07172741428, 3015.06664349644, 3015.65720423396, 3043.90798184044, 3044.3474689009204, 3044.821290888, 3053.3088847435192, 3057.07199269888, 3062.7784574998, 3072.117557535, 3090.8781614292393]

>  <ZPE_kJmol>  (2) 
613.2521071062491

>  <E_elec_kJmol>  (2) 
-925846.257031225

>  <E0_minus_Eelec_plus_ZPE_kJmol>  (2) 
0.0

>  <rxn>  (2) 
rxn_739

>  <species_type>  (2) 
p0

>  <species_folder>  (2) 
rxn_739_C1CCC2CCCC2C1

>  <frequencies_cm1_list>  (2) 
[79.74630052116, 161.44969185852, 192.46099756363998, 319.95344701476, 325.08995203411996, 337.32691987436, 425.16252910247994, 470.50523317043996, 497.06673238819997, 579.3538174777599, 623.59780389452, 769.3495673115199, 782.1839628746, 837.42199278868, 848.74565158136, 873.0204446875598, 907.5545138618398, 921.7142375916799, 922.5451428153999, 945.43967187228, 987.1978096031999, 1015.3867843418, 1044.03584709684, 1066.28487953364, 1072.4857672776, 1096.98030391404, 1116.2696656779199, 1122.75209982, 1142.3985448205199, 1202.0657802659998, 1207.82031396416, 1217.5508321625998, 1256.61711164808, 1262.63945777372, 1284.5314069738797, 1286.2687542598399, 1313.97704002604, 1316.9847795961998, 1320.6311488011202, 1339.9411115209598, 1339.9754464475598, 1365.2322184545199, 1368.74811493836, 1376.8580246012798, 1398.55083122716, 1401.5036349147601, 1472.50826312356, 1476.82072990452, 1478.06365424744, 1478.81215564732, 1486.92206531024, 1491.0628574582, 1506.3831017071197, 2950.4551786205598, 2962.34193020948, 2991.31374127456, 2991.7532283350397, 2996.8759993837602, 3001.07172741428, 3015.06664349644, 3015.65720423396, 3043.90798184044, 3044.3474689009204, 3044.821290888, 3053.3088847435192, 3057.07199269888, 3062.7784574998, 3072.117557535, 3090.8781614292393]

>  <E0_kJmol>  (2) 
-925233

>  <H298_kJmol>  (2) 
-925210

$$$$

     RDKit          3D

 33 33  0  0  0  0  0  0  0  0999 V2000
    2.2686    1.2712   -2.4471 C   0  0  0  0  0  0  0  0  0  1  0  0
    2.3734    0.3963   -1.4442 C   0  0  0  0  0  0  0  0  0  2  0  0
    2.6996    0.7295   -0.0628 C   0  0  0  0  0  0  0  0  0  3  0  0
    1.9812    0.9593   -3.4426 H   0  0  0  0  0  0  0  0  0  4  0  0
    2.4787    2.3252   -2.3000 H   0  0  0  0  0  0  0  0  0  5  0  0
    2.1515   -0.6484   -1.6489 H   0  0  0  0  0  0  0  0  0  6  0  0
    1.5810    0.8663    0.6045 H   0  0  0  0  0  0  0  0  0  7  0  0
    3.1638    1.7048    0.0750 H   0  0  0  0  0  0  0  0  0  8  0  0
    3.2087   -0.0518    0.4968 H   0  0  0  0  0  0  0  0  0  9  0  0
    0.3984    1.1435    1.2797 C   0  0  0  0  0  3  0  0  0 10  0  0
   -0.2644    2.2563    0.4765 C   0  0  0  0  0  0  0  0  0 11  0  0
   -1.4669    1.5896   -0.2285 C   0  0  0  0  0  0  0  0  0 12  0  0
   -1.1040    0.1089   -0.2394 C   0  0  0  0  0  0  0  0  0 13  0  0
   -2.1908   -0.9202   -0.4899 C   0  0  0  0  0  0  0  0  0 14  0  0
   -1.6048   -2.3284   -0.3476 C   0  0  0  0  0  0  0  0  0 15  0  0
   -0.8965   -2.5354    0.9939 C   0  0  0  0  0  0  0  0  0 16  0  0
    0.1678   -1.4679    1.2631 C   0  0  0  0  0  0  0  0  0 17  0  0
   -0.4594   -0.0884    1.1339 C   0  0  0  0  0  0  0  0  0 18  0  0
    0.7667    1.3885    2.2738 H   0  0  0  0  0  0  0  0  0 19  0  0
   -0.5689    3.0941    1.1069 H   0  0  0  0  0  0  0  0  0 20  0  0
    0.4332    2.6612   -0.2637 H   0  0  0  0  0  0  0  0  0 21  0  0
   -1.6468    1.9939   -1.2252 H   0  0  0  0  0  0  0  0  0 22  0  0
   -2.3797    1.7372    0.3571 H   0  0  0  0  0  0  0  0  0 23  0  0
   -0.3166   -0.0360   -0.9905 H   0  0  0  0  0  0  0  0  0 24  0  0
   -2.9985   -0.7794    0.2383 H   0  0  0  0  0  0  0  0  0 25  0  0
   -2.6318   -0.7935   -1.4820 H   0  0  0  0  0  0  0  0  0 26  0  0
   -0.8857   -2.4919   -1.1581 H   0  0  0  0  0  0  0  0  0 27  0  0
   -2.3887   -3.0790   -0.4712 H   0  0  0  0  0  0  0  0  0 28  0  0
   -1.6401   -2.5015    1.7980 H   0  0  0  0  0  0  0  0  0 29  0  0
   -0.4487   -3.5312    1.0260 H   0  0  0  0  0  0  0  0  0 30  0  0
    0.6075   -1.6103    2.2536 H   0  0  0  0  0  0  0  0  0 31  0  0
    0.9811   -1.5656    0.5360 H   0  0  0  0  0  0  0  0  0 32  0  0
   -1.2680   -0.0256    1.8824 H   0  0  0  0  0  0  0  0  0 33  0  0
  1  4  1  0
  1  5  1  0
  1  2  1  0
  2  6  1  0
  2  3  1  0
  3  8  1  0
  3  7  1  0
  3  9  1  0
 10 11  1  0
 10 19  1  0
 10 18  1  0
 11 21  1  0
 11 12  1  0
 11 20  1  0
 12 22  1  0
 12 23  1  0
 12 13  1  0
 13 24  1  0
 13 14  1  0
 13 18  1  0
 14 15  1  0
 14 25  1  0
 14 26  1  0
 15 27  1  0
 15 16  1  0
 15 28  1  0
 16 29  1  0
 16 17  1  0
 16 30  1  0
 17 18  1  0
 17 32  1  0
 17 31  1  0
 18 33  1  0
M  RAD  1  10   2
M  END
>  <rmg_smiles>  (3) 
[CH2][CH]C.[CH]1CCC2CCCCC12

>  <rmg_adjacency_list>  (3) 
multiplicity 2
1  C u0 p0 c0 {2,S} {3,S} {4,S} {13,S}
2  C u0 p0 c0 {1,S} {5,S} {10,S} {14,S}
3  C u0 p0 c0 {1,S} {6,S} {17,S} {18,S}
4  C u0 p0 c0 {1,S} {8,S} {15,S} {16,S}
5  C u0 p0 c0 {2,S} {7,S} {23,S} {24,S}
6  C u0 p0 c0 {3,S} {7,S} {19,S} {20,S}
7  C u0 p0 c0 {5,S} {6,S} {21,S} {22,S}
8  C u0 p0 c0 {4,S} {10,S} {25,S} {26,S}
9  C u0 p0 c0 {11,S} {27,S} {28,S} {29,S}
10 C u1 p0 c0 {2,S} {8,S} {30,S}
11 C u0 p0 c0 {9,S} {12,S} {31,S}
12 C u0 p0 c0 {11,S} {32,S} {33,S}
13 H u0 p0 c0 {1,S}
14 H u0 p0 c0 {2,S}
15 H u0 p0 c0 {4,S}
16 H u0 p0 c0 {4,S}
17 H u0 p0 c0 {3,S}
18 H u0 p0 c0 {3,S}
19 H u0 p0 c0 {6,S}
20 H u0 p0 c0 {6,S}
21 H u0 p0 c0 {7,S}
22 H u0 p0 c0 {7,S}
23 H u0 p0 c0 {5,S}
24 H u0 p0 c0 {5,S}
25 H u0 p0 c0 {8,S}
26 H u0 p0 c0 {8,S}
27 H u0 p0 c0 {9,S}
28 H u0 p0 c0 {9,S}
29 H u0 p0 c0 {9,S}
30 H u0 p0 c0 {10,S}
31 H u0 p0 c0 {11,S}
32 H u0 p0 c0 {12,S}
33 H u0 p0 c0 {12,S}


>  <multiplicity>  (3) 
2

>  <reaction>  (3) 
rxn_739

>  <type>  (3) 
ts

>  <role_mapnums>  (3) 
{"*2": 7, "*1": 3, "*3": 10, "*0": 2, "*4": 18}

>  <role_mapidx>  (3) 
{"*2": 6, "*1": 2, "*3": 9, "*0": 1, "*4": 17}

>  <ordered_mapped_smiles>  (3) 
[CH:1]([CH:2]([C:3]([H:7])([H:8])[H:9])[H:6])([H:4])[H:5].[C:10]1([H:19])[C:11]([H:20])([H:21])[C:12]([H:22])([H:23])[C:13]2([H:24])[C:14]([H:25])([H:26])[C:15]([H:27])([H:28])[C:16]([H:29])([H:30])[C:17]([H:31])([H:32])[C:18]12[H:33]

>  <mol_properties>  (3) 
{"1": {"label": "*0", "atom_type": "Cs"}, "2": {"label": "*1", "atom_type": "Cs"}, "6": {"label": "*2", "atom_type": "H0"}, "9": {"label": "*3", "atom_type": "Cs"}, "17": {"label": "*4", "atom_type": "Cs"}}

>  <level_of_theory>  (3) 
wb97xd/def2tzvp

>  <lot_method>  (3) 
wb97xd

>  <lot_basis>  (3) 
def2tzvp

>  <spin_multiplicity>  (3) 
2.0

>  <optical_isomers>  (3) 
2.0

>  <modes>  (3) 
IdealGasTranslation(mass=(165.164, 'amu')),         NonlinearRotor(             inertia = ([436.745, 786.558, 868.065

>  <frequency_value>  (3) 
-1728.18

>  <frequency_units>  (3) 
cm^-1

>  <frequency_list>  (3) 
unknown

>  <arkane_path>  (3) 
/home/calvin/Dropbox/PersonalFolders/Calvin/HAb_Converged/rxn_739/output/rxns/TS0/arkane/output.py

>  <path_exists>  (3) 
True

>  <E0_value>  (3) 
-1232840.0

>  <E0_units>  (3) 
kJ/mol

>  <thermo_class>  (3) 
unknown

>  <Cp0_value>  (3) 
unknown

>  <Cp0_units>  (3) 
unknown

>  <CpInf_value>  (3) 
unknown

>  <CpInf_units>  (3) 
unknown

>  <Tmin_value>  (3) 
unknown

>  <Tmin_units>  (3) 
unknown

>  <Tmax_value>  (3) 
unknown

>  <Tmax_units>  (3) 
unknown

>  <polynomials>  (3) 
unknown

>  <H298_value>  (3) 
unknown

>  <H298_units>  (3) 
unknown

>  <S298_value>  (3) 
unknown

>  <S298_units>  (3) 
unknown

>  <Cp_T_value_list>  (3) 
unknown

>  <Cp_T_units>  (3) 
unknown

>  <T_list>  (3) 
unknown

>  <T_units>  (3) 
unknown

>  <yaml_path>  (3) 
unknown

>  <frequencies_cm1>  (3) 
unknown

>  <ZPE_kJmol>  (3) 
unknown

>  <E_elec_kJmol>  (3) 
unknown

>  <E0_minus_Eelec_plus_ZPE_kJmol>  (3) 
unknown

>  <rxn>  (3) 
unknown

>  <species_type>  (3) 
unknown

>  <species_folder>  (3) 
unknown

>  <frequencies_cm1_list>  (3) 
[]

>  <ts_imag_freq_cm1>  (3) 
-1749.1669

>  <ts_freq_out_path>  (3) 
/home/calvin/Dropbox/PersonalFolders/Calvin/HAb_Converged/rxn_739/output/rxns/TS0/geometry/freq.out

>  <E0_kJmol>  (3) 
-1.23284e+06

>  <H298_kJmol>  (3) 
unknown

$$$$

     RDKit          3D

  8  7  0  0  0  0  0  0  0  0999 V2000
   -1.2262   -0.1032    0.0429 C   0  0  0  0  0  0  0  0  0  1  0  0
    0.0344    0.4295    0.2005 C   0  0  0  0  0  0  0  0  0  2  0  0
    1.2024   -0.1933   -0.1813 C   0  0  0  0  0  3  0  0  0  3  0  0
   -2.1090    0.4329    0.3624 H   0  0  0  0  0  0  0  0  0  4  0  0
   -1.3659   -1.0784   -0.4078 H   0  0  0  0  0  0  0  0  0  5  0  0
    0.1132    1.4113    0.6589 H   0  0  0  0  0  0  0  0  0  6  0  0
    2.1658    0.2743   -0.0323 H   0  0  0  0  0  0  0  0  0  7  0  0
    1.1853   -1.1731   -0.6434 H   0  0  0  0  0  0  0  0  0  8  0  0
  1  5  1  0
  1  4  1  0
  1  2  1  0
  2  6  1  0
  2  3  1  0
  3  8  1  0
  3  7  1  0
M  RAD  1   3   2
M  END
>  <rmg_smiles>  (4) 
[CH2][CH][CH2]

>  <rmg_adjacency_list>  (4) 
multiplicity 2
1 C u0 p0 c0 {2,S} {3,S} {4,S}
2 C u1 p0 c0 {1,S} {7,S} {8,S}
3 C u0 p0 c0 {1,S} {5,S} {6,S}
4 H u0 p0 c0 {1,S}
5 H u0 p0 c0 {3,S}
6 H u0 p0 c0 {3,S}
7 H u0 p0 c0 {2,S}
8 H u0 p0 c0 {2,S}


>  <multiplicity>  (4) 
2

>  <reaction>  (4) 
rxn_739

>  <type>  (4) 
r1

>  <role_mapnums>  (4) 
{}

>  <role_mapidx>  (4) 
{}

>  <ordered_mapped_smiles>  (4) 
[CH:1]([CH:2]([C:3]([H:7])[H:8])[H:6])([H:4])[H:5]

>  <level_of_theory>  (4) 
wb97xd/def2tzvp

>  <lot_method>  (4) 
wb97xd

>  <lot_basis>  (4) 
def2tzvp

>  <spin_multiplicity>  (4) 
2.0

>  <optical_isomers>  (4) 
1.0

>  <modes>  (4) 
IdealGasTranslation(mass=(41.0391, 'amu')),         NonlinearRotor(             inertia = ([9.18678, 48.3525, 57.5393

>  <frequency_value>  (4) 
unknown

>  <frequency_units>  (4) 
unknown

>  <frequency_list>  (4) 
unknown

>  <arkane_path>  (4) 
/home/calvin/Dropbox/PersonalFolders/Calvin/HAb_Converged/rxn_739/output/Species/rxn_739_[CH2]C=C/arkane/output.py

>  <path_exists>  (4) 
True

>  <E0_value>  (4) 
-307695.8239419476

>  <E0_units>  (4) 
kJ/mol

>  <thermo_class>  (4) 
NASA

>  <Cp0_value>  (4) 
33.257888

>  <Cp0_units>  (4) 
J/(mol*K)

>  <CpInf_value>  (4) 
182.918384

>  <CpInf_units>  (4) 
J/(mol*K)

>  <Tmin_value>  (4) 
10.0

>  <Tmin_units>  (4) 
K

>  <Tmax_value>  (4) 
3000.0

>  <Tmax_units>  (4) 
K

>  <polynomials>  (4) 
[{"name": "polynomial1", "class": "NASAPolynomial", "Tmin_value": 10.0, "Tmin_units": "K", "Tmax_value": 532.7267436952769, "Tmax_units": "K", "coeffs": [4.120476242700736, -0.01110500746607337, 0.00013118962632593044, -2.295122998736072e-07, 1.327617546042694e-10, -37007258.9235638, 6.732627685136077]}, {"name": "polynomial2", "class": "NASAPolynomial", "Tmin_value": 532.7267436952769, "Tmin_units": "K", "Tmax_value": 3000.0, "Tmax_units": "K", "coeffs": [0.911699466954835, 0.027118425571894478, -1.6222639840263127e-05, 4.752540164453407e-09, -5.404199600895895e-13, -37007117.54936121, 18.310519838179516]}]

>  <H298_value>  (4) 
-73538.08078140329

>  <H298_units>  (4) 
kcal/mol

>  <S298_value>  (4) 
61.52456331648896

>  <S298_units>  (4) 
cal/(mol*K)

>  <Cp_T_value_list>  (4) 
[14.853530963099974, 18.637467651362382, 21.80750730434748, 24.44088072021761, 28.68710434193412, 31.834263999492475, 36.54938793194129, 39.012029638884556, 40.38558701326713]

>  <Cp_T_units>  (4) 
cal/(mol*K)

>  <T_list>  (4) 
[300.0, 400.0, 500.0, 600.0, 800.0, 1000.0, 1500.0, 2000.0, 2400.0]

>  <T_units>  (4) 
K

>  <yaml_path>  (4) 
/home/calvin/Dropbox/PersonalFolders/Calvin/HAb_Converged/rxn_739/output/Species/rxn_739_[CH2]C=C/rxn_739_CH2C=C.yml

>  <frequencies_cm1>  (4) 
[432.19432207015996, 530.70122648556, 552.78545127468, 794.8604177753199, 818.87426543936, 934.1091460942799, 1008.91808417036, 1035.1568350780801, 1186.33351689788, 1269.2386306662397, 1410.5886564931197, 1500.8483115392, 1510.5101598844399, 3121.9787379435197, 3123.6542823616, 3129.68349547256, 3223.1843675896794, 3225.69081723148]

>  <ZPE_kJmol>  (4) 
172.31799451557927

>  <E_elec_kJmol>  (4) 
-307868.1419364632

>  <E0_minus_Eelec_plus_ZPE_kJmol>  (4) 
0.0

>  <rxn>  (4) 
rxn_739

>  <species_type>  (4) 
p1

>  <species_folder>  (4) 
rxn_739_[CH2]C=C

>  <frequencies_cm1_list>  (4) 
[432.19432207015996, 530.70122648556, 552.78545127468, 794.8604177753199, 818.87426543936, 934.1091460942799, 1008.91808417036, 1035.1568350780801, 1186.33351689788, 1269.2386306662397, 1410.5886564931197, 1500.8483115392, 1510.5101598844399, 3121.9787379435197, 3123.6542823616, 3129.68349547256, 3223.1843675896794, 3225.69081723148]

>  <E0_kJmol>  (4) 
-307696

>  <H298_kJmol>  (4) 
-307683

$$$$

     RDKit          3D

 24 25  0  0  0  0  0  0  0  0999 V2000
   -1.3137    1.2076    0.0526 C   0  0  0  0  0  3  0  0  0  1  0  0
   -2.3065    0.1196    0.2833 C   0  0  0  0  0  0  0  0  0  2  0  0
   -1.7836   -1.0394   -0.5898 C   0  0  0  0  0  0  0  0  0  3  0  0
   -0.2749   -0.7855   -0.6984 C   0  0  0  0  0  0  0  0  0  4  0  0
    0.4655   -1.2917    0.5434 C   0  0  0  0  0  0  0  0  0  5  0  0
    1.8694   -0.7131    0.6745 C   0  0  0  0  0  0  0  0  0  6  0  0
    1.8184    0.8105    0.7119 C   0  0  0  0  0  0  0  0  0  7  0  0
    1.1779    1.3572   -0.5588 C   0  0  0  0  0  0  0  0  0  8  0  0
   -0.2011    0.7528   -0.8316 C   0  0  0  0  0  0  0  0  0  9  0  0
   -1.4277    2.2231    0.4082 H   0  0  0  0  0  0  0  0  0 10  0  0
   -2.3438   -0.1691    1.3425 H   0  0  0  0  0  0  0  0  0 11  0  0
   -3.3295    0.4088    0.0212 H   0  0  0  0  0  0  0  0  0 12  0  0
   -2.2393   -0.9859   -1.5815 H   0  0  0  0  0  0  0  0  0 13  0  0
   -2.0144   -2.0220   -0.1744 H   0  0  0  0  0  0  0  0  0 14  0  0
    0.1520   -1.2674   -1.5825 H   0  0  0  0  0  0  0  0  0 15  0  0
   -0.1033   -1.0202    1.4396 H   0  0  0  0  0  0  0  0  0 16  0  0
    0.4983   -2.3841    0.5177 H   0  0  0  0  0  0  0  0  0 17  0  0
    2.4827   -1.0338   -0.1757 H   0  0  0  0  0  0  0  0  0 18  0  0
    2.3514   -1.1019    1.5744 H   0  0  0  0  0  0  0  0  0 19  0  0
    1.2359    1.1286    1.5834 H   0  0  0  0  0  0  0  0  0 20  0  0
    2.8216    1.2258    0.8314 H   0  0  0  0  0  0  0  0  0 21  0  0
    1.0952    2.4462   -0.5109 H   0  0  0  0  0  0  0  0  0 22  0  0
    1.8331    1.1314   -1.4069 H   0  0  0  0  0  0  0  0  0 23  0  0
   -0.4636    1.0027   -1.8738 H   0  0  0  0  0  0  0  0  0 24  0  0
  1 10  1  0
  1  9  1  0
  1  2  1  0
  2 12  1  0
  2 11  1  0
  2  3  1  0
  3  4  1  0
  3 13  1  0
  3 14  1  0
  4  9  1  0
  4  5  1  0
  4 15  1  0
  5 16  1  0
  5 17  1  0
  5  6  1  0
  6  7  1  0
  6 19  1  0
  6 18  1  0
  7 20  1  0
  7 21  1  0
  7  8  1  0
  8 23  1  0
  8  9  1  0
  8 22  1  0
  9 24  1  0
M  RAD  1   1   2
M  END
>  <rmg_smiles>  (5) 
[CH]1CCC2CCCCC12

>  <rmg_adjacency_list>  (5) 
multiplicity 2
1  C u0 p0 c0 {2,S} {3,S} {4,S} {10,S}
2  C u0 p0 c0 {1,S} {5,S} {9,S} {11,S}
3  C u0 p0 c0 {1,S} {6,S} {14,S} {15,S}
4  C u0 p0 c0 {1,S} {8,S} {12,S} {13,S}
5  C u0 p0 c0 {2,S} {7,S} {20,S} {21,S}
6  C u0 p0 c0 {3,S} {7,S} {16,S} {17,S}
7  C u0 p0 c0 {5,S} {6,S} {18,S} {19,S}
8  C u0 p0 c0 {4,S} {9,S} {22,S} {23,S}
9  C u1 p0 c0 {2,S} {8,S} {24,S}
10 H u0 p0 c0 {1,S}
11 H u0 p0 c0 {2,S}
12 H u0 p0 c0 {4,S}
13 H u0 p0 c0 {4,S}
14 H u0 p0 c0 {3,S}
15 H u0 p0 c0 {3,S}
16 H u0 p0 c0 {6,S}
17 H u0 p0 c0 {6,S}
18 H u0 p0 c0 {7,S}
19 H u0 p0 c0 {7,S}
20 H u0 p0 c0 {5,S}
21 H u0 p0 c0 {5,S}
22 H u0 p0 c0 {8,S}
23 H u0 p0 c0 {8,S}
24 H u0 p0 c0 {9,S}


>  <multiplicity>  (5) 
2

>  <reaction>  (5) 
rxn_739

>  <type>  (5) 
r2

>  <role_mapnums>  (5) 
{}

>  <role_mapidx>  (5) 
{}

>  <ordered_mapped_smiles>  (5) 
[C:1]1([H:10])[C:2]([H:11])([H:12])[C:3]([H:13])([H:14])[C:4]2([H:15])[C:5]([H:16])([H:17])[C:6]([H:18])([H:19])[C:7]([H:20])([H:21])[C:8]([H:22])([H:23])[C:9]12[H:24]

>  <level_of_theory>  (5) 
wb97xd/def2tzvp

>  <lot_method>  (5) 
wb97xd

>  <lot_basis>  (5) 
def2tzvp

>  <spin_multiplicity>  (5) 
2.0

>  <optical_isomers>  (5) 
2.0

>  <modes>  (5) 
IdealGasTranslation(mass=(123.117, 'amu')),         NonlinearRotor(             inertia = ([183.116, 337.78, 420.862

>  <frequency_value>  (5) 
unknown

>  <frequency_units>  (5) 
unknown

>  <frequency_list>  (5) 
unknown

>  <arkane_path>  (5) 
/home/calvin/Dropbox/PersonalFolders/Calvin/HAb_Converged/rxn_739/output/Species/rxn_739_[CH]1CCC2CCCCC12/arkane/output.py

>  <path_exists>  (5) 
True

>  <E0_value>  (5) 
-923521.4034742753

>  <E0_units>  (5) 
kJ/mol

>  <thermo_class>  (5) 
NASA

>  <Cp0_value>  (5) 
33.257888

>  <Cp0_units>  (5) 
J/(mol*K)

>  <CpInf_value>  (5) 
582.01304

>  <CpInf_units>  (5) 
J/(mol*K)

>  <Tmin_value>  (5) 
10.0

>  <Tmin_units>  (5) 
K

>  <Tmax_value>  (5) 
3000.0

>  <Tmax_units>  (5) 
K

>  <polynomials>  (5) 
[{"name": "polynomial1", "class": "NASAPolynomial", "Tmin_value": 10.0, "Tmin_units": "K", "Tmax_value": 528.972455779128, "Tmax_units": "K", "coeffs": [3.9868218800267257, -0.0002706572745000309, 0.00028187632893371514, -4.741050184034835e-07, 2.5734956335824994e-10, -111073965.68706591, 13.539897637614564]}, {"name": "polynomial2", "class": "NASAPolynomial", "Tmin_value": 528.972455779128, "Tmin_units": "K", "Tmax_value": 3000.0, "Tmax_units": "K", "coeffs": [-8.057241794330608, 0.1064450955450352, -6.508787704379979e-05, 1.907252295638734e-08, -2.1508745349439294e-12, -111072910.31254905, 61.90729537273606]}]

>  <H298_value>  (5) 
-220721.245578044

>  <H298_units>  (5) 
kcal/mol

>  <S298_value>  (5) 
89.45134221739195

>  <S298_units>  (5) 
cal/(mol*K)

>  <Cp_T_value_list>  (5) 
[36.878956346585845, 50.12569271862853, 61.88517923543043, 71.97481392014562, 88.08635981771188, 99.80073994362994, 116.53702427589523, 124.49378200225445, 128.77598528640422]

>  <Cp_T_units>  (5) 
cal/(mol*K)

>  <T_list>  (5) 
[300.0, 400.0, 500.0, 600.0, 800.0, 1000.0, 1500.0, 2000.0, 2400.0]

>  <T_units>  (5) 
K

>  <yaml_path>  (5) 
/home/calvin/Dropbox/PersonalFolders/Calvin/HAb_Converged/rxn_739/output/Species/rxn_739_[CH]1CCC2CCCCC12/rxn_739_CH1CCC2CCCCC12.yml

>  <frequencies_cm1>  (5) 
[136.62553992672, 157.51490927016, 211.37954212023996, 286.18848019632, 322.06847849332, 355.62056876684, 367.5897241795999, 411.11954412308, 476.10869319156, 586.10406404732, 659.1619208667998, 679.4263945461199, 776.27148851408, 816.29914594436, 831.37217872176, 862.80923751672, 874.6891221203199, 908.0695377608398, 920.8901993532799, 936.1829756609199, 978.41493537892, 1007.2974756348399, 1019.2666310475998, 1048.87020476212, 1054.7002752987999, 1059.7475095089999, 1090.01031381424, 1111.6207166162799, 1132.16673669372, 1153.45439118572, 1197.1009498796398, 1215.60747531704, 1249.276304341, 1269.96653111016, 1285.0532978581998, 1290.7322947178397, 1302.2482290994799, 1317.86375371716, 1334.75653760436, 1341.808931528, 1361.1738301304, 1369.2082029548, 1377.33871357368, 1391.0452162724, 1392.73449466112, 1461.8919038188399, 1471.2378708393599, 1474.8361711470397, 1479.64992785636, 1487.40275428264, 1490.6165034123997, 2897.1467715814, 2960.3367704960397, 2992.7077392945193, 2999.801335130079, 3001.73782499032, 3002.8296756562, 3006.4005080225998, 3019.7155925580796, 3032.0555651781197, 3045.94747648048, 3049.81358921564, 3053.18527900776, 3057.6694204217197, 3072.8935268761597, 3173.233916372]

>  <ZPE_kJmol>  (5) 
575.1531238351159

>  <E_elec_kJmol>  (5) 
-924096.5565981104

>  <E0_minus_Eelec_plus_ZPE_kJmol>  (5) 
0.0

>  <rxn>  (5) 
rxn_739

>  <species_type>  (5) 
r1

>  <species_folder>  (5) 
rxn_739_[CH]1CCC2CCCCC12

>  <frequencies_cm1_list>  (5) 
[136.62553992672, 157.51490927016, 211.37954212023996, 286.18848019632, 322.06847849332, 355.62056876684, 367.5897241795999, 411.11954412308, 476.10869319156, 586.10406404732, 659.1619208667998, 679.4263945461199, 776.27148851408, 816.29914594436, 831.37217872176, 862.80923751672, 874.6891221203199, 908.0695377608398, 920.8901993532799, 936.1829756609199, 978.41493537892, 1007.2974756348399, 1019.2666310475998, 1048.87020476212, 1054.7002752987999, 1059.7475095089999, 1090.01031381424, 1111.6207166162799, 1132.16673669372, 1153.45439118572, 1197.1009498796398, 1215.60747531704, 1249.276304341, 1269.96653111016, 1285.0532978581998, 1290.7322947178397, 1302.2482290994799, 1317.86375371716, 1334.75653760436, 1341.808931528, 1361.1738301304, 1369.2082029548, 1377.33871357368, 1391.0452162724, 1392.73449466112, 1461.8919038188399, 1471.2378708393599, 1474.8361711470397, 1479.64992785636, 1487.40275428264, 1490.6165034123997, 2897.1467715814, 2960.3367704960397, 2992.7077392945193, 2999.801335130079, 3001.73782499032, 3002.8296756562, 3006.4005080225998, 3019.7155925580796, 3032.0555651781197, 3045.94747648048, 3049.81358921564, 3053.18527900776, 3057.6694204217197, 3072.8935268761597, 3173.233916372]

>  <E0_kJmol>  (5) 
-923521

>  <H298_kJmol>  (5) 
-923498

$$$$
