
     RDKit          3D

 21 21  0  0  0  0  0  0  0  0999 V2000
   -1.6113    0.6151   -2.1073 C   0  0  0  0  0  0  0  0  0  1  0  0
   -1.2025    0.9564   -0.6968 C   0  0  0  0  0  0  0  0  0  2  0  0
   -1.1800    2.4364   -0.3982 C   0  0  0  0  0  0  0  0  0  3  0  0
   -0.1777    0.1116   -0.0601 C   0  0  0  0  0  0  0  0  0  4  0  0
    0.2567    0.3691    1.2481 C   0  0  0  0  0  0  0  0  0  5  0  0
    1.1515   -0.4699    1.8876 C   0  0  0  0  0  0  0  0  0  6  0  0
    1.6519   -1.5903    1.2398 C   0  0  0  0  0  0  0  0  0  7  0  0
    1.2453   -1.8565   -0.0588 C   0  0  0  0  0  0  0  0  0  8  0  0
    0.3426   -1.0233   -0.6959 C   0  0  0  0  0  0  0  0  0  9  0  0
   -0.7914    0.7772   -2.8159 H   0  0  0  0  0  0  0  0  0 10  0  0
   -1.9285   -0.4257   -2.1949 H   0  0  0  0  0  0  0  0  0 11  0  0
   -2.4456    1.2445   -2.4202 H   0  0  0  0  0  0  0  0  0 12  0  0
   -2.0850    0.6410   -0.1402 H   0  0  0  0  0  0  0  0  0 13  0  0
   -0.3110    2.9135   -0.8647 H   0  0  0  0  0  0  0  0  0 14  0  0
   -2.0762    2.9169   -0.7950 H   0  0  0  0  0  0  0  0  0 15  0  0
   -1.1424    2.6477    0.6696 H   0  0  0  0  0  0  0  0  0 16  0  0
   -0.1273    1.2269    1.7830 H   0  0  0  0  0  0  0  0  0 17  0  0
    1.4609   -0.2468    2.9013 H   0  0  0  0  0  0  0  0  0 18  0  0
    2.3535   -2.2453    1.7402 H   0  0  0  0  0  0  0  0  0 19  0  0
    1.6311   -2.7234   -0.5808 H   0  0  0  0  0  0  0  0  0 20  0  0
    0.0392   -1.2617   -1.7059 H   0  0  0  0  0  0  0  0  0 21  0  0
  1 11  1  0
  1 10  1  0
  1 12  1  0
  1  2  1  0
  2 13  1  0
  2  3  1  0
  2  4  1  0
  3 15  1  0
  3 16  1  0
  3 14  1  0
  4  9  1  0
  4  5  1  0
  5 17  1  0
  5  6  1  0
  6  7  1  0
  6 18  1  0
  7 19  1  0
  7  8  1  0
  8 20  1  0
  8  9  1  0
  9 21  1  0
M  END
>  <rmg_smiles>  (1) 
CC(C)C1[CH][CH][CH][CH][CH]1

>  <rmg_adjacency_list>  (1) 
1  C u0 p0 c0 {2,S} {3,S} {4,S} {10,S}
2  C u0 p0 c0 {1,S} {11,S} {12,S} {13,S}
3  C u0 p0 c0 {1,S} {14,S} {15,S} {16,S}
4  C u0 p0 c0 {1,S} {5,S} {6,S}
5  C u0 p0 c0 {4,S} {7,S} {17,S}
6  C u0 p0 c0 {4,S} {9,S} {21,S}
7  C u0 p0 c0 {5,S} {8,S} {18,S}
8  C u0 p0 c0 {7,S} {9,S} {19,S}
9  C u0 p0 c0 {6,S} {8,S} {20,S}
10 H u0 p0 c0 {1,S}
11 H u0 p0 c0 {2,S}
12 H u0 p0 c0 {2,S}
13 H u0 p0 c0 {2,S}
14 H u0 p0 c0 {3,S}
15 H u0 p0 c0 {3,S}
16 H u0 p0 c0 {3,S}
17 H u0 p0 c0 {5,S}
18 H u0 p0 c0 {7,S}
19 H u0 p0 c0 {8,S}
20 H u0 p0 c0 {9,S}
21 H u0 p0 c0 {6,S}


>  <multiplicity>  (1) 
1

>  <reaction>  (1) 
rxn_1529

>  <type>  (1) 
r1h

>  <role_mapnums>  (1) 
{"r1h_a": 2, "r1h_h": 13}

>  <role_mapidx>  (1) 
{"r1h_a": 1, "r1h_h": 12}

>  <ordered_mapped_smiles>  (1) 
[C:1]([C:2]([C:3]([H:14])([H:15])[H:16])([CH:4]1[CH:5]([H:17])[CH:6]([H:18])[CH:7]([H:19])[CH:8]([H:20])[CH:9]1[H:21])[H:13])([H:10])([H:11])[H:12]

>  <mol_properties>  (1) 
{"1": {"label": "donator", "atom_type": "Cs"}, "12": {"label": "d_hydrogen", "atom_type": "H0"}}

>  <level_of_theory>  (1) 
wb97xd/def2tzvp

>  <lot_method>  (1) 
wb97xd

>  <lot_basis>  (1) 
def2tzvp

>  <spin_multiplicity>  (1) 
1.0

>  <optical_isomers>  (1) 
1.0

>  <modes>  (1) 
IdealGasTranslation(mass=(120.094, 'amu')),         NonlinearRotor(             inertia = ([149.32, 463.91, 504.647

>  <frequency_value>  (1) 
unknown

>  <frequency_units>  (1) 
unknown

>  <frequency_list>  (1) 
unknown

>  <arkane_path>  (1) 
/home/calvin/Dropbox/PersonalFolders/Calvin/HAb_Converged/rxn_1529/output/Species/rxn_1529_CC[C]c1ccccc1/arkane/output.py

>  <path_exists>  (1) 
True

>  <E0_value>  (1) 
-918971.9705563578

>  <E0_units>  (1) 
kJ/mol

>  <thermo_class>  (1) 
NASA

>  <Cp0_value>  (1) 
33.257888

>  <Cp0_units>  (1) 
J/(mol*K)

>  <CpInf_value>  (1) 
507.182792

>  <CpInf_units>  (1) 
J/(mol*K)

>  <Tmin_value>  (1) 
10.0

>  <Tmin_units>  (1) 
K

>  <Tmax_value>  (1) 
3000.0

>  <Tmax_units>  (1) 
K

>  <polynomials>  (1) 
[{"name": "polynomial1", "class": "NASAPolynomial", "Tmin_value": 10.0, "Tmin_units": "K", "Tmax_value": 361.89922232211296, "Tmax_units": "K", "coeffs": [3.904348622062279, 0.0066165546790882615, 0.0002808737755672962, -5.999598061578041e-07, 4.2351735797772944e-10, -110526797.72652088, 13.495734278594782]}, {"name": "polynomial2", "class": "NASAPolynomial", "Tmin_value": 361.89922232211296, "Tmin_units": "K", "Tmax_value": 3000.0, "Tmax_units": "K", "coeffs": [-3.390813709941935, 0.08724915524894813, -5.3334839935951765e-05, 1.570183761902888e-08, -1.7850302751301086e-12, -110526269.70789742, 41.275892626906796]}]

>  <H298_value>  (1) 
-219633.7064411244

>  <H298_units>  (1) 
kcal/mol

>  <S298_value>  (1) 
90.86478001259816

>  <S298_units>  (1) 
cal/(mol*K)

>  <Cp_T_value_list>  (1) 
[36.563666942497676, 47.56278372816195, 57.13460978558492, 65.41564668608144, 78.65841331539274, 88.31207084387951, 102.21497799600469, 108.94333746029595, 112.55073339579498]

>  <Cp_T_units>  (1) 
cal/(mol*K)

>  <T_list>  (1) 
[300.0, 400.0, 500.0, 600.0, 800.0, 1000.0, 1500.0, 2000.0, 2400.0]

>  <T_units>  (1) 
K

>  <yaml_path>  (1) 
/home/calvin/Dropbox/PersonalFolders/Calvin/HAb_Converged/rxn_1529/output/Species/rxn_1529_CC[C]c1ccccc1/rxn_1529_CCCc1ccccc1.yml

>  <frequencies_cm1>  (1) 
[40.364139710959996, 128.71477283808, 218.52120685304, 233.34702815891998, 266.85791652052, 308.13536527904, 321.59465650623997, 414.80711523991994, 466.94813477468, 550.3133365594799, 568.586384496, 632.73089437012, 716.65918895116, 754.681686668, 783.96251207248, 862.0195342049199, 904.8283206898, 929.47393100328, 933.9718063878798, 965.95822400844, 981.62868450868, 994.4218781598398, 1016.0460149325199, 1049.9277205014, 1069.59476645788, 1107.56919527748, 1128.8637167548, 1168.97377800892, 1175.1197298703198, 1202.8829515190798, 1234.84190119836, 1303.2851438828, 1340.7170808621202, 1342.0355420435599, 1378.7945144615198, 1391.1344870815599, 1410.5131196546, 1472.453327241, 1477.58983226036, 1484.7452309638, 1489.7306623061197, 1494.12553291092, 1530.39694937116, 1639.69188772428, 1662.05765891152, 3009.3533117101997, 3011.8528943666793, 3016.5430453402396, 3079.47209881272, 3084.9519530980792, 3090.83695951732, 3093.05499577568, 3143.16338765572, 3146.4320726680403, 3159.08105962748, 3167.4725156885197, 3180.6639944882395]

>  <ZPE_kJmol>  (1) 
482.8876988097695

>  <E_elec_kJmol>  (1) 
-919454.8582551676

>  <E0_minus_Eelec_plus_ZPE_kJmol>  (1) 
0.0

>  <rxn>  (1) 
rxn_1529

>  <species_type>  (1) 
r1

>  <species_folder>  (1) 
rxn_1529_CC[C]c1ccccc1

>  <frequencies_cm1_list>  (1) 
[40.364139710959996, 128.71477283808, 218.52120685304, 233.34702815891998, 266.85791652052, 308.13536527904, 321.59465650623997, 414.80711523991994, 466.94813477468, 550.3133365594799, 568.586384496, 632.73089437012, 716.65918895116, 754.681686668, 783.96251207248, 862.0195342049199, 904.8283206898, 929.47393100328, 933.9718063878798, 965.95822400844, 981.62868450868, 994.4218781598398, 1016.0460149325199, 1049.9277205014, 1069.59476645788, 1107.56919527748, 1128.8637167548, 1168.97377800892, 1175.1197298703198, 1202.8829515190798, 1234.84190119836, 1303.2851438828, 1340.7170808621202, 1342.0355420435599, 1378.7945144615198, 1391.1344870815599, 1410.5131196546, 1472.453327241, 1477.58983226036, 1484.7452309638, 1489.7306623061197, 1494.12553291092, 1530.39694937116, 1639.69188772428, 1662.05765891152, 3009.3533117101997, 3011.8528943666793, 3016.5430453402396, 3079.47209881272, 3084.9519530980792, 3090.83695951732, 3093.05499577568, 3143.16338765572, 3146.4320726680403, 3159.08105962748, 3167.4725156885197, 3180.6639944882395]

>  <E0_kJmol>  (1) 
-918972

>  <H298_kJmol>  (1) 
-918947

$$$$

     RDKit          3D

 13 12  0  0  0  0  0  0  0  0999 V2000
   -0.1616    1.9117    1.3464 C   0  0  0  0  0  0  0  0  0  1  0  0
    0.1222    0.7382    0.7823 C   0  0  0  0  0  0  0  0  0  2  0  0
   -0.2165    0.3744   -0.5979 C   0  0  0  0  0  0  0  0  0  3  0  0
   -0.2948   -1.0454   -0.9773 C   0  0  0  0  0  0  0  0  0  4  0  0
    0.5050   -2.0156   -0.5357 C   0  0  0  0  0  0  0  0  0  5  0  0
    0.1282    2.1320    2.3655 H   0  0  0  0  0  0  0  0  0  6  0  0
   -0.7028    2.6829    0.8086 H   0  0  0  0  0  0  0  0  0  7  0  0
    0.6671   -0.0009    1.3608 H   0  0  0  0  0  0  0  0  0  8  0  0
   -1.0185    0.9831   -1.0134 H   0  0  0  0  0  0  0  0  0  9  0  0
   -1.0346   -1.2925   -1.7329 H   0  0  0  0  0  0  0  0  0 10  0  0
    0.4014   -3.0298   -0.8983 H   0  0  0  0  0  0  0  0  0 11  0  0
    1.2941   -1.8336    0.1851 H   0  0  0  0  0  0  0  0  0 12  0  0
    0.6385    0.7257   -1.1739 H   0  0  0  0  0  0  0  0  0 13  0  0
  1  7  1  0
  1  6  1  0
  1  2  1  0
  2  8  1  0
  2  3  1  0
  3  4  1  0
  3 13  1  0
  3  9  1  0
  4  5  1  0
  4 10  1  0
  5 11  1  0
  5 12  1  0
M  END
>  <rmg_smiles>  (2) 
[CH2][CH]C[CH][CH2]

>  <rmg_adjacency_list>  (2) 
1  C u0 p0 c0 {2,S} {3,S} {6,S} {7,S}
2  C u0 p0 c0 {1,S} {4,S} {8,S}
3  C u0 p0 c0 {1,S} {5,S} {9,S}
4  C u0 p0 c0 {2,S} {10,S} {11,S}
5  C u0 p0 c0 {3,S} {12,S} {13,S}
6  H u0 p0 c0 {1,S}
7  H u0 p0 c0 {1,S}
8  H u0 p0 c0 {2,S}
9  H u0 p0 c0 {3,S}
10 H u0 p0 c0 {4,S}
11 H u0 p0 c0 {4,S}
12 H u0 p0 c0 {5,S}
13 H u0 p0 c0 {5,S}


>  <multiplicity>  (2) 
1

>  <reaction>  (2) 
rxn_1529

>  <type>  (2) 
r2h

>  <role_mapnums>  (2) 
{"r2h_a": 3, "r2h_h": 13}

>  <role_mapidx>  (2) 
{"r2h_a": 2, "r2h_h": 12}

>  <ordered_mapped_smiles>  (2) 
[CH:1]([CH:2]([C:3]([CH:4]([CH:5]([H:11])[H:12])[H:10])([H:9])[H:13])[H:8])([H:6])[H:7]

>  <mol_properties>  (2) 
{"2": {"label": "acceptor", "atom_type": "Cs"}, "12": {"label": "a_hydrogen", "atom_type": "H0"}}

>  <level_of_theory>  (2) 
wb97xd/def2tzvp

>  <lot_method>  (2) 
wb97xd

>  <lot_basis>  (2) 
def2tzvp

>  <spin_multiplicity>  (2) 
1.0

>  <optical_isomers>  (2) 
2.0

>  <modes>  (2) 
IdealGasTranslation(mass=(68.0626, 'amu')),         NonlinearRotor(             inertia = ([45.0412, 159.938, 187.579

>  <frequency_value>  (2) 
unknown

>  <frequency_units>  (2) 
unknown

>  <frequency_list>  (2) 
unknown

>  <arkane_path>  (2) 
/home/calvin/Dropbox/PersonalFolders/Calvin/HAb_Converged/rxn_1529/output/Species/rxn_1529_C=CCC=C/arkane/output.py

>  <path_exists>  (2) 
True

>  <E0_value>  (2) 
-512473.3799039456

>  <E0_units>  (2) 
kJ/mol

>  <thermo_class>  (2) 
NASA

>  <Cp0_value>  (2) 
33.257888

>  <Cp0_units>  (2) 
J/(mol*K)

>  <CpInf_value>  (2) 
307.635464

>  <CpInf_units>  (2) 
J/(mol*K)

>  <Tmin_value>  (2) 
10.0

>  <Tmin_units>  (2) 
K

>  <Tmax_value>  (2) 
3000.0

>  <Tmax_units>  (2) 
K

>  <polynomials>  (2) 
[{"name": "polynomial1", "class": "NASAPolynomial", "Tmin_value": 10.0, "Tmin_units": "K", "Tmax_value": 819.4804820196184, "Tmax_units": "K", "coeffs": [3.8786961323103277, 0.01518848526354921, 5.629175519915376e-05, -8.158967068239976e-08, 3.30459758185792e-11, -61636312.679365546, 10.298540277465028]}, {"name": "polynomial2", "class": "NASAPolynomial", "Tmin_value": 819.4804820196184, "Tmin_units": "K", "Tmax_value": 3000.0, "Tmax_units": "K", "coeffs": [0.9713570478533602, 0.04440309225960069, -2.468286623666531e-05, 6.656489578832237e-09, -7.002700885295111e-13, -61636340.62723716, 20.6681030649648]}]

>  <H298_value>  (2) 
-122479.74618776135

>  <H298_units>  (2) 
kcal/mol

>  <S298_value>  (2) 
77.03784100856907

>  <S298_units>  (2) 
cal/(mol*K)

>  <Cp_T_value_list>  (2) 
[22.98452912921813, 28.98342495343222, 34.60231709225981, 39.57761952390819, 47.33114131422195, 52.95468648559353, 61.52407504834919, 65.76395981018108, 67.86608281001313]

>  <Cp_T_units>  (2) 
cal/(mol*K)

>  <T_list>  (2) 
[300.0, 400.0, 500.0, 600.0, 800.0, 1000.0, 1500.0, 2000.0, 2400.0]

>  <T_units>  (2) 
K

>  <yaml_path>  (2) 
/home/calvin/Dropbox/PersonalFolders/Calvin/HAb_Converged/rxn_1529/output/Species/rxn_1529_C=CCC=C/rxn_1529_C=CCC=C.yml

>  <frequencies_cm1>  (2) 
[87.95234797856001, 151.90458226372, 257.19606817528, 416.50326061396, 498.01437636235994, 571.25077480016, 682.49593698416, 887.8393990081199, 919.5923391278, 958.3564712591999, 961.16506825508, 963.55477914644, 1034.0581174268798, 1039.2220903875198, 1080.8909573092799, 1137.2757737718, 1245.9046145488799, 1315.20623039832, 1324.3393208739199, 1346.8492987528798, 1434.93211945252, 1443.44718124932, 1463.70478794332, 1713.3403052812798, 1720.18668964532, 2995.26912481888, 3030.3800207600398, 3111.8568015818396, 3116.1074654949202, 3123.6062134643594, 3128.7427184837197, 3202.1645255251597, 3207.6031778986]

>  <ZPE_kJmol>  (2) 
296.4999886896896

>  <E_elec_kJmol>  (2) 
-512769.8798926352

>  <E0_minus_Eelec_plus_ZPE_kJmol>  (2) 
0.0

>  <rxn>  (2) 
rxn_1529

>  <species_type>  (2) 
p0

>  <species_folder>  (2) 
rxn_1529_C=CCC=C

>  <frequencies_cm1_list>  (2) 
[87.95234797856001, 151.90458226372, 257.19606817528, 416.50326061396, 498.01437636235994, 571.25077480016, 682.49593698416, 887.8393990081199, 919.5923391278, 958.3564712591999, 961.16506825508, 963.55477914644, 1034.0581174268798, 1039.2220903875198, 1080.8909573092799, 1137.2757737718, 1245.9046145488799, 1315.20623039832, 1324.3393208739199, 1346.8492987528798, 1434.93211945252, 1443.44718124932, 1463.70478794332, 1713.3403052812798, 1720.18668964532, 2995.26912481888, 3030.3800207600398, 3111.8568015818396, 3116.1074654949202, 3123.6062134643594, 3128.7427184837197, 3202.1645255251597, 3207.6031778986]

>  <E0_kJmol>  (2) 
-512473

>  <H298_kJmol>  (2) 
-512455

$$$$

     RDKit          3D

 33 32  0  0  0  0  0  0  0  0999 V2000
   -2.2031    1.7450    2.1889 C   0  0  0  0  0  0  0  0  0  1  0  0
   -1.9193    0.5715    1.6248 C   0  0  0  0  0  0  0  0  0  2  0  0
   -2.2580    0.2076    0.2445 C   0  0  0  0  0  0  0  0  0  3  0  0
   -2.3364   -1.2121   -0.1348 C   0  0  0  0  0  0  0  0  0  4  0  0
   -1.5365   -2.1823    0.3068 C   0  0  0  0  0  0  0  0  0  5  0  0
   -1.9133    1.9653    3.2080 H   0  0  0  0  0  0  0  0  0  6  0  0
   -2.7443    2.5162    1.6511 H   0  0  0  0  0  0  0  0  0  7  0  0
   -1.3744   -0.1676    2.2033 H   0  0  0  0  0  0  0  0  0  8  0  0
   -3.0600    0.8164   -0.1709 H   0  0  0  0  0  0  0  0  0  9  0  0
   -3.0762   -1.4592   -0.8904 H   0  0  0  0  0  0  0  0  0 10  0  0
   -1.6402   -3.1965   -0.0558 H   0  0  0  0  0  0  0  0  0 11  0  0
   -0.7474   -2.0003    1.0276 H   0  0  0  0  0  0  0  0  0 12  0  0
   -0.5086    0.6926   -2.5712 C   0  0  0  0  0  0  0  0  0 13  0  0
   -0.0998    1.0338   -1.1608 C   0  0  0  0  0  3  0  0  0 14  0  0
   -0.0773    2.5139   -0.8622 C   0  0  0  0  0  0  0  0  0 15  0  0
    0.9250    0.1890   -0.5241 C   0  0  0  0  0  0  0  0  0 16  0  0
    1.3594    0.4466    0.7842 C   0  0  0  0  0  0  0  0  0 17  0  0
    2.2541   -0.3925    1.4237 C   0  0  0  0  0  0  0  0  0 18  0  0
    2.7545   -1.5129    0.7758 C   0  0  0  0  0  0  0  0  0 19  0  0
    2.3479   -1.7790   -0.5228 C   0  0  0  0  0  0  0  0  0 20  0  0
    1.4453   -0.9459   -1.1598 C   0  0  0  0  0  0  0  0  0 21  0  0
    0.3112    0.8546   -3.2798 H   0  0  0  0  0  0  0  0  0 22  0  0
   -0.8258   -0.3482   -2.6589 H   0  0  0  0  0  0  0  0  0 23  0  0
   -1.3429    1.3220   -2.8841 H   0  0  0  0  0  0  0  0  0 24  0  0
   -1.2324    0.6291   -0.4464 H   0  0  0  0  0  0  0  0  0 25  0  0
    0.7917    2.9910   -1.3286 H   0  0  0  0  0  0  0  0  0 26  0  0
   -0.9735    2.9943   -1.2589 H   0  0  0  0  0  0  0  0  0 27  0  0
   -0.0397    2.7251    0.2057 H   0  0  0  0  0  0  0  0  0 28  0  0
    0.9754    1.3043    1.3190 H   0  0  0  0  0  0  0  0  0 29  0  0
    2.5635   -0.1693    2.4374 H   0  0  0  0  0  0  0  0  0 30  0  0
    3.4562   -2.1678    1.2763 H   0  0  0  0  0  0  0  0  0 31  0  0
    2.7337   -2.6460   -1.0447 H   0  0  0  0  0  0  0  0  0 32  0  0
    1.1419   -1.1842   -2.1698 H   0  0  0  0  0  0  0  0  0 33  0  0
  1  7  1  0
  1  6  1  0
  1  2  1  0
  2  8  1  0
  2  3  1  0
  3  4  1  0
  3 25  1  0
  3  9  1  0
  4 10  1  0
  4  5  1  0
  5 12  1  0
  5 11  1  0
 13 23  1  0
 13 24  1  0
 13 14  1  0
 13 22  1  0
 14 15  1  0
 14 16  1  0
 15 27  1  0
 15 28  1  0
 15 26  1  0
 16 21  1  0
 16 17  1  0
 17 18  1  0
 17 29  1  0
 18 19  1  0
 18 30  1  0
 19 31  1  0
 19 20  1  0
 20 21  1  0
 20 32  1  0
 21 33  1  0
M  RAD  1  14   2
M  END
>  <rmg_smiles>  (3) 
C[C](C)C1[CH][CH][CH][CH][CH]1.[CH2][CH]C[CH][CH2]

>  <rmg_adjacency_list>  (3) 
multiplicity 2
1  C u0 p0 c0 {6,S} {7,S} {15,S} {16,S}
2  C u0 p0 c0 {4,S} {17,S} {18,S} {19,S}
3  C u0 p0 c0 {4,S} {20,S} {21,S} {22,S}
4  C u1 p0 c0 {2,S} {3,S} {5,S}
5  C u0 p0 c0 {4,S} {8,S} {9,S}
6  C u0 p0 c0 {1,S} {13,S} {23,S}
7  C u0 p0 c0 {1,S} {14,S} {24,S}
8  C u0 p0 c0 {5,S} {10,S} {25,S}
9  C u0 p0 c0 {5,S} {12,S} {29,S}
10 C u0 p0 c0 {8,S} {11,S} {26,S}
11 C u0 p0 c0 {10,S} {12,S} {27,S}
12 C u0 p0 c0 {9,S} {11,S} {28,S}
13 C u0 p0 c0 {6,S} {30,S} {31,S}
14 C u0 p0 c0 {7,S} {32,S} {33,S}
15 H u0 p0 c0 {1,S}
16 H u0 p0 c0 {1,S}
17 H u0 p0 c0 {2,S}
18 H u0 p0 c0 {2,S}
19 H u0 p0 c0 {2,S}
20 H u0 p0 c0 {3,S}
21 H u0 p0 c0 {3,S}
22 H u0 p0 c0 {3,S}
23 H u0 p0 c0 {6,S}
24 H u0 p0 c0 {7,S}
25 H u0 p0 c0 {8,S}
26 H u0 p0 c0 {10,S}
27 H u0 p0 c0 {11,S}
28 H u0 p0 c0 {12,S}
29 H u0 p0 c0 {9,S}
30 H u0 p0 c0 {13,S}
31 H u0 p0 c0 {13,S}
32 H u0 p0 c0 {14,S}
33 H u0 p0 c0 {14,S}


>  <multiplicity>  (3) 
2

>  <reaction>  (3) 
rxn_1529

>  <type>  (3) 
ts

>  <role_mapnums>  (3) 
{"*2": 25, "*1": 14, "*3": 3, "*0": 2, "*4": 16}

>  <role_mapidx>  (3) 
{"*2": 24, "*1": 13, "*3": 2, "*0": 1, "*4": 15}

>  <ordered_mapped_smiles>  (3) 
[CH:1]([CH:2]([C:3]([CH:4]([CH:5]([H:11])[H:12])[H:10])([H:9])[H:25])[H:8])([H:6])[H:7].[C:13]([C:14]([C:15]([H:26])([H:27])[H:28])[CH:16]1[CH:17]([H:29])[CH:18]([H:30])[CH:19]([H:31])[CH:20]([H:32])[CH:21]1[H:33])([H:22])([H:23])[H:24]

>  <mol_properties>  (3) 
{"1": {"label": "*0", "atom_type": "Cs"}, "2": {"label": "*3", "atom_type": "Cs"}, "13": {"label": "*1", "atom_type": "Cs"}, "15": {"label": "*4", "atom_type": "Cs"}, "24": {"label": "*2", "atom_type": "H0"}}

>  <level_of_theory>  (3) 
wb97xd/def2tzvp

>  <lot_method>  (3) 
wb97xd

>  <lot_basis>  (3) 
def2tzvp

>  <spin_multiplicity>  (3) 
2.0

>  <optical_isomers>  (3) 
2.0

>  <modes>  (3) 
IdealGasTranslation(mass=(187.149, 'amu')),         NonlinearRotor(             inertia = ([618.329, 956.903, 1005.25

>  <frequency_value>  (3) 
-1663.79

>  <frequency_units>  (3) 
cm^-1

>  <frequency_list>  (3) 
unknown

>  <arkane_path>  (3) 
/home/calvin/Dropbox/PersonalFolders/Calvin/HAb_Converged/rxn_1529/output/rxns/TS0/arkane/output.py

>  <path_exists>  (3) 
True

>  <E0_value>  (3) 
-1429730.0

>  <E0_units>  (3) 
kJ/mol

>  <thermo_class>  (3) 
unknown

>  <Cp0_value>  (3) 
unknown

>  <Cp0_units>  (3) 
unknown

>  <CpInf_value>  (3) 
unknown

>  <CpInf_units>  (3) 
unknown

>  <Tmin_value>  (3) 
unknown

>  <Tmin_units>  (3) 
unknown

>  <Tmax_value>  (3) 
unknown

>  <Tmax_units>  (3) 
unknown

>  <polynomials>  (3) 
unknown

>  <H298_value>  (3) 
unknown

>  <H298_units>  (3) 
unknown

>  <S298_value>  (3) 
unknown

>  <S298_units>  (3) 
unknown

>  <Cp_T_value_list>  (3) 
unknown

>  <Cp_T_units>  (3) 
unknown

>  <T_list>  (3) 
unknown

>  <T_units>  (3) 
unknown

>  <yaml_path>  (3) 
unknown

>  <frequencies_cm1>  (3) 
unknown

>  <ZPE_kJmol>  (3) 
unknown

>  <E_elec_kJmol>  (3) 
unknown

>  <E0_minus_Eelec_plus_ZPE_kJmol>  (3) 
unknown

>  <rxn>  (3) 
unknown

>  <species_type>  (3) 
unknown

>  <species_folder>  (3) 
unknown

>  <frequencies_cm1_list>  (3) 
[]

>  <ts_imag_freq_cm1>  (3) 
-1683.9989

>  <ts_freq_out_path>  (3) 
/home/calvin/Dropbox/PersonalFolders/Calvin/HAb_Converged/rxn_1529/output/rxns/TS0/geometry/freq.out

>  <E0_kJmol>  (3) 
-1.42973e+06

>  <H298_kJmol>  (3) 
unknown

$$$$

     RDKit          3D

 20 20  0  0  0  0  0  0  0  0999 V2000
   -2.4774    0.8083    0.1488 C   0  0  0  0  0  0  0  0  0  1  0  0
   -1.4172   -0.1696   -0.2476 C   0  0  0  0  0  3  0  0  0  2  0  0
   -0.2904    0.2932   -1.1156 C   0  0  0  0  0  0  0  0  0  3  0  0
   -1.4797   -1.5204    0.1947 C   0  0  0  0  0  0  0  0  0  4  0  0
   -0.4907   -2.4664   -0.1650 C   0  0  0  0  0  0  0  0  0  5  0  0
   -0.5559   -3.7750    0.2665 C   0  0  0  0  0  0  0  0  0  6  0  0
   -1.6038   -4.2041    1.0733 C   0  0  0  0  0  0  0  0  0  7  0  0
   -2.5899   -3.2959    1.4424 C   0  0  0  0  0  0  0  0  0  8  0  0
   -2.5339   -1.9852    1.0162 C   0  0  0  0  0  0  0  0  0  9  0  0
   -3.4697    0.4933   -0.1924 H   0  0  0  0  0  0  0  0  0 10  0  0
   -2.5434    0.9184    1.2368 H   0  0  0  0  0  0  0  0  0 11  0  0
   -2.2829    1.7944   -0.2706 H   0  0  0  0  0  0  0  0  0 12  0  0
   -0.2452   -0.2661   -2.0565 H   0  0  0  0  0  0  0  0  0 13  0  0
   -0.3905    1.3487   -1.3647 H   0  0  0  0  0  0  0  0  0 14  0  0
    0.6811    0.1589   -0.6274 H   0  0  0  0  0  0  0  0  0 15  0  0
    0.3373   -2.1635   -0.7918 H   0  0  0  0  0  0  0  0  0 16  0  0
    0.2187   -4.4725   -0.0281 H   0  0  0  0  0  0  0  0  0 17  0  0
   -1.6513   -5.2316    1.4097 H   0  0  0  0  0  0  0  0  0 18  0  0
   -3.4116   -3.6175    2.0706 H   0  0  0  0  0  0  0  0  0 19  0  0
   -3.3164   -1.3029    1.3205 H   0  0  0  0  0  0  0  0  0 20  0  0
  1 11  1  0
  1 10  1  0
  1 12  1  0
  1  2  1  0
  2  3  1  0
  2  4  1  0
  3 15  1  0
  3 13  1  0
  3 14  1  0
  4  9  1  0
  4  5  1  0
  5 16  1  0
  5  6  1  0
  6  7  1  0
  6 17  1  0
  7 18  1  0
  7  8  1  0
  8 19  1  0
  8  9  1  0
  9 20  1  0
M  RAD  1   2   2
M  END
>  <rmg_smiles>  (4) 
C[C](C)C1[CH][CH][CH][CH][CH]1

>  <rmg_adjacency_list>  (4) 
multiplicity 2
1  C u0 p0 c0 {3,S} {10,S} {11,S} {12,S}
2  C u0 p0 c0 {3,S} {13,S} {14,S} {15,S}
3  C u1 p0 c0 {1,S} {2,S} {4,S}
4  C u0 p0 c0 {3,S} {5,S} {6,S}
5  C u0 p0 c0 {4,S} {7,S} {16,S}
6  C u0 p0 c0 {4,S} {9,S} {20,S}
7  C u0 p0 c0 {5,S} {8,S} {17,S}
8  C u0 p0 c0 {7,S} {9,S} {18,S}
9  C u0 p0 c0 {6,S} {8,S} {19,S}
10 H u0 p0 c0 {1,S}
11 H u0 p0 c0 {1,S}
12 H u0 p0 c0 {1,S}
13 H u0 p0 c0 {2,S}
14 H u0 p0 c0 {2,S}
15 H u0 p0 c0 {2,S}
16 H u0 p0 c0 {5,S}
17 H u0 p0 c0 {7,S}
18 H u0 p0 c0 {8,S}
19 H u0 p0 c0 {9,S}
20 H u0 p0 c0 {6,S}


>  <multiplicity>  (4) 
2

>  <reaction>  (4) 
rxn_1529

>  <type>  (4) 
r1

>  <role_mapnums>  (4) 
{}

>  <role_mapidx>  (4) 
{}

>  <ordered_mapped_smiles>  (4) 
[C:1]([C:2]([C:3]([H:13])([H:14])[H:15])[CH:4]1[CH:5]([H:16])[CH:6]([H:17])[CH:7]([H:18])[CH:8]([H:19])[CH:9]1[H:20])([H:10])([H:11])[H:12]

>  <level_of_theory>  (4) 
wb97xd/def2tzvp

>  <lot_method>  (4) 
wb97xd

>  <lot_basis>  (4) 
def2tzvp

>  <spin_multiplicity>  (4) 
2.0

>  <optical_isomers>  (4) 
1.0

>  <modes>  (4) 
IdealGasTranslation(mass=(119.086, 'amu')),         NonlinearRotor(             inertia = ([147.943, 418.336, 560.064

>  <frequency_value>  (4) 
unknown

>  <frequency_units>  (4) 
unknown

>  <frequency_list>  (4) 
unknown

>  <arkane_path>  (4) 
/home/calvin/Dropbox/PersonalFolders/Calvin/HAb_Converged/rxn_1529/output/Species/rxn_1529_C[C][C]c1ccccc1/arkane/output.py

>  <path_exists>  (4) 
True

>  <E0_value>  (4) 
-917305.6793154374

>  <E0_units>  (4) 
kJ/mol

>  <thermo_class>  (4) 
NASA

>  <Cp0_value>  (4) 
33.257888

>  <Cp0_units>  (4) 
J/(mol*K)

>  <CpInf_value>  (4) 
482.239376

>  <CpInf_units>  (4) 
J/(mol*K)

>  <Tmin_value>  (4) 
10.0

>  <Tmin_units>  (4) 
K

>  <Tmax_value>  (4) 
3000.0

>  <Tmax_units>  (4) 
K

>  <polynomials>  (4) 
[{"name": "polynomial1", "class": "NASAPolynomial", "Tmin_value": 10.0, "Tmin_units": "K", "Tmax_value": 820.2225002457031, "Tmax_units": "K", "coeffs": [3.7087715908878534, 0.03551334410867291, 7.625059119540152e-05, -1.2560734316113271e-07, 5.320480088877488e-11, -110326392.84742013, 12.19412592857727]}, {"name": "polynomial2", "class": "NASAPolynomial", "Tmin_value": 820.2225002457031, "Tmin_units": "K", "Tmax_value": 3000.0, "Tmax_units": "K", "coeffs": [2.0631615838326263, 0.07155383546720528, -4.0892856549356014e-05, 1.1247434201086425e-08, -1.200197285964276e-12, -110327065.27984656, 14.06242109608226]}]

>  <H298_value>  (4) 
-219235.10103074583

>  <H298_units>  (4) 
kcal/mol

>  <S298_value>  (4) 
91.98557876161978

>  <S298_units>  (4) 
cal/(mol*K)

>  <Cp_T_value_list>  (4) 
[36.29610547032918, 46.57490747487287, 55.94477856481854, 64.04994476982951, 76.31181375819965, 84.99555925751662, 97.907834516263, 104.08137794150619, 107.1390022615462]

>  <Cp_T_units>  (4) 
cal/(mol*K)

>  <T_list>  (4) 
[300.0, 400.0, 500.0, 600.0, 800.0, 1000.0, 1500.0, 2000.0, 2400.0]

>  <T_units>  (4) 
K

>  <yaml_path>  (4) 
/home/calvin/Dropbox/PersonalFolders/Calvin/HAb_Converged/rxn_1529/output/Species/rxn_1529_C[C][C]c1ccccc1/rxn_1529_CCCc1ccccc1.yml

>  <frequencies_cm1>  (4) 
[63.56081612192, 120.90701052923998, 139.35173309875998, 146.39726003707997, 226.46630886828, 338.41877054023996, 360.33818768168, 416.18737928923997, 451.99870773303996, 518.2376481297599, 524.17759043156, 626.9420257453601, 690.9491959130801, 730.7777107690799, 767.1040631118799, 830.7266821016799, 897.8583305899999, 913.4944561636399, 942.5692720085199, 968.56767843004, 978.9505602338799, 993.91372124616, 999.23563486916, 1039.80578413972, 1044.4753341573198, 1105.9691876979198, 1113.02158162156, 1170.28537220504, 1199.70353731592, 1239.75866268748, 1319.3882244581998, 1348.18836089028, 1355.0896811368798, 1389.11559339748, 1406.12511603512, 1462.54426742424, 1462.78461191044, 1474.0258668792799, 1486.24910074888, 1486.8121935451197, 1509.72045657264, 1596.1139988835598, 1617.80680550944, 2981.31541064864, 2984.9205779416397, 3027.138803689, 3028.1413835457197, 3095.76058799176, 3103.71255699232, 3152.0767346010794, 3159.1703304366397, 3175.07426843776, 3181.8657169192397, 3186.23311958276]

>  <ZPE_kJmol>  (4) 
445.9053042173275

>  <E_elec_kJmol>  (4) 
-917751.5846196548

>  <E0_minus_Eelec_plus_ZPE_kJmol>  (4) 
0.0

>  <rxn>  (4) 
rxn_1529

>  <species_type>  (4) 
p1

>  <species_folder>  (4) 
rxn_1529_C[C][C]c1ccccc1

>  <frequencies_cm1_list>  (4) 
[63.56081612192, 120.90701052923998, 139.35173309875998, 146.39726003707997, 226.46630886828, 338.41877054023996, 360.33818768168, 416.18737928923997, 451.99870773303996, 518.2376481297599, 524.17759043156, 626.9420257453601, 690.9491959130801, 730.7777107690799, 767.1040631118799, 830.7266821016799, 897.8583305899999, 913.4944561636399, 942.5692720085199, 968.56767843004, 978.9505602338799, 993.91372124616, 999.23563486916, 1039.80578413972, 1044.4753341573198, 1105.9691876979198, 1113.02158162156, 1170.28537220504, 1199.70353731592, 1239.75866268748, 1319.3882244581998, 1348.18836089028, 1355.0896811368798, 1389.11559339748, 1406.12511603512, 1462.54426742424, 1462.78461191044, 1474.0258668792799, 1486.24910074888, 1486.8121935451197, 1509.72045657264, 1596.1139988835598, 1617.80680550944, 2981.31541064864, 2984.9205779416397, 3027.138803689, 3028.1413835457197, 3095.76058799176, 3103.71255699232, 3152.0767346010794, 3159.1703304366397, 3175.07426843776, 3181.8657169192397, 3186.23311958276]

>  <E0_kJmol>  (4) 
-917306

>  <H298_kJmol>  (4) 
-917280

$$$$

     RDKit          3D

 12 11  0  0  0  0  0  0  0  0999 V2000
   -2.3791    0.4612   -0.5870 C   0  0  0  0  0  0  0  0  0  1  0  0
   -1.3422   -0.3138   -0.1893 C   0  0  0  0  0  0  0  0  0  2  0  0
   -1.4723   -1.6058    0.3589 C   0  0  0  0  0  3  0  0  0  3  0  0
   -0.3798   -2.3973    0.7671 C   0  0  0  0  0  0  0  0  0  4  0  0
   -0.4849   -3.6397    1.2956 C   0  0  0  0  0  0  0  0  0  5  0  0
   -2.2205    1.4472   -1.0017 H   0  0  0  0  0  0  0  0  0  6  0  0
   -3.4026    0.1153   -0.5011 H   0  0  0  0  0  0  0  0  0  7  0  0
   -0.3330    0.0765   -0.2952 H   0  0  0  0  0  0  0  0  0  8  0  0
   -2.4723   -2.0151    0.4735 H   0  0  0  0  0  0  0  0  0  9  0  0
    0.6117   -1.9687    0.6436 H   0  0  0  0  0  0  0  0  0 10  0  0
    0.3893   -4.2030    1.5920 H   0  0  0  0  0  0  0  0  0 11  0  0
   -1.4516   -4.1084    1.4378 H   0  0  0  0  0  0  0  0  0 12  0  0
  1  7  1  0
  1  6  1  0
  1  2  1  0
  2  8  1  0
  2  3  1  0
  3  4  1  0
  3  9  1  0
  4  5  1  0
  4 10  1  0
  5 11  1  0
  5 12  1  0
M  RAD  1   3   2
M  END
>  <rmg_smiles>  (5) 
[CH2][CH][CH][CH][CH2]

>  <rmg_adjacency_list>  (5) 
multiplicity 2
1  C u1 p0 c0 {2,S} {3,S} {7,S}
2  C u0 p0 c0 {1,S} {4,S} {6,S}
3  C u0 p0 c0 {1,S} {5,S} {8,S}
4  C u0 p0 c0 {2,S} {9,S} {10,S}
5  C u0 p0 c0 {3,S} {11,S} {12,S}
6  H u0 p0 c0 {2,S}
7  H u0 p0 c0 {1,S}
8  H u0 p0 c0 {3,S}
9  H u0 p0 c0 {4,S}
10 H u0 p0 c0 {4,S}
11 H u0 p0 c0 {5,S}
12 H u0 p0 c0 {5,S}


>  <multiplicity>  (5) 
2

>  <reaction>  (5) 
rxn_1529

>  <type>  (5) 
r2

>  <role_mapnums>  (5) 
{}

>  <role_mapidx>  (5) 
{}

>  <ordered_mapped_smiles>  (5) 
[CH:1]([CH:2]([C:3]([CH:4]([CH:5]([H:11])[H:12])[H:10])[H:9])[H:8])([H:6])[H:7]

>  <level_of_theory>  (5) 
wb97xd/def2tzvp

>  <lot_method>  (5) 
wb97xd

>  <lot_basis>  (5) 
def2tzvp

>  <spin_multiplicity>  (5) 
2.0

>  <optical_isomers>  (5) 
1.0

>  <modes>  (5) 
IdealGasTranslation(mass=(67.0548, 'amu')),         NonlinearRotor(             inertia = ([15.7789, 219.5, 235.279

>  <frequency_value>  (5) 
unknown

>  <frequency_units>  (5) 
unknown

>  <frequency_list>  (5) 
unknown

>  <arkane_path>  (5) 
/home/calvin/Dropbox/PersonalFolders/Calvin/HAb_Converged/rxn_1529/output/Species/rxn_1529_C=C[CH]C=C/arkane/output.py

>  <path_exists>  (5) 
True

>  <E0_value>  (5) 
-510855.5751100087

>  <E0_units>  (5) 
kJ/mol

>  <thermo_class>  (5) 
NASA

>  <Cp0_value>  (5) 
33.257888

>  <Cp0_units>  (5) 
J/(mol*K)

>  <CpInf_value>  (5) 
282.692048

>  <CpInf_units>  (5) 
J/(mol*K)

>  <Tmin_value>  (5) 
10.0

>  <Tmin_units>  (5) 
K

>  <Tmax_value>  (5) 
3000.0

>  <Tmax_units>  (5) 
K

>  <polynomials>  (5) 
[{"name": "polynomial1", "class": "NASAPolynomial", "Tmin_value": 10.0, "Tmin_units": "K", "Tmax_value": 495.5840275842744, "Tmax_units": "K", "coeffs": [3.932082032376979, 0.0042390896901888155, 0.00013491958123094253, -2.6336005693654997e-07, 1.626909165392724e-10, -61441731.381948404, 9.35015460292558]}, {"name": "polynomial2", "class": "NASAPolynomial", "Tmin_value": 495.5840275842744, "Tmin_units": "K", "Tmax_value": 3000.0, "Tmax_units": "K", "coeffs": [0.4678177086389979, 0.045132350968267176, -2.7995649240380386e-05, 8.450588130835857e-09, -9.873863008116942e-13, -61441546.824784815, 22.029002821441143]}]

>  <H298_value>  (5) 
-122093.22023375862

>  <H298_units>  (5) 
kcal/mol

>  <S298_value>  (5) 
73.53288382015234

>  <S298_units>  (5) 
cal/(mol*K)

>  <Cp_T_value_list>  (5) 
[22.959480712992537, 28.863567781662294, 33.84151615247921, 38.087110466730245, 44.868640102140795, 49.81473866504161, 57.02929961159329, 60.721969960278656, 62.78050937960764]

>  <Cp_T_units>  (5) 
cal/(mol*K)

>  <T_list>  (5) 
[300.0, 400.0, 500.0, 600.0, 800.0, 1000.0, 1500.0, 2000.0, 2400.0]

>  <T_units>  (5) 
K

>  <yaml_path>  (5) 
/home/calvin/Dropbox/PersonalFolders/Calvin/HAb_Converged/rxn_1529/output/Species/rxn_1529_C=C[CH]C=C/rxn_1529_C=CCHC=C.yml

>  <frequencies_cm1>  (5) 
[152.447074104, 206.60012033752, 248.40632696568, 457.56783282756, 491.88902545691997, 588.69978449828, 627.8209998663199, 832.6563049765999, 870.4315912219199, 882.064264354, 920.7322586909199, 984.0870652532399, 1007.05026416332, 1023.1327437827599, 1134.85859493916, 1248.1157838219199, 1283.31595057224, 1294.9760916455998, 1300.263670342, 1433.84713577196, 1468.49107671136, 1516.66297873116, 1589.96804702216, 3115.7572492435997, 3116.0319286563995, 3124.4645866293595, 3126.14013104744, 3128.6191127479597, 3219.8676136801196, 3219.9500175039598]

>  <ZPE_kJmol>  (5) 
260.8752032786634

>  <E_elec_kJmol>  (5) 
-511116.4503132874

>  <E0_minus_Eelec_plus_ZPE_kJmol>  (5) 
0.0

>  <rxn>  (5) 
rxn_1529

>  <species_type>  (5) 
r0

>  <species_folder>  (5) 
rxn_1529_C=C[CH]C=C

>  <frequencies_cm1_list>  (5) 
[152.447074104, 206.60012033752, 248.40632696568, 457.56783282756, 491.88902545691997, 588.69978449828, 627.8209998663199, 832.6563049765999, 870.4315912219199, 882.064264354, 920.7322586909199, 984.0870652532399, 1007.05026416332, 1023.1327437827599, 1134.85859493916, 1248.1157838219199, 1283.31595057224, 1294.9760916455998, 1300.263670342, 1433.84713577196, 1468.49107671136, 1516.66297873116, 1589.96804702216, 3115.7572492435997, 3116.0319286563995, 3124.4645866293595, 3126.14013104744, 3128.6191127479597, 3219.8676136801196, 3219.9500175039598]

>  <E0_kJmol>  (5) 
-510856

>  <H298_kJmol>  (5) 
-510838

$$$$
