
     RDKit          3D

 14 13  0  0  0  0  0  0  0  0999 V2000
    0.3573    0.3971   -1.3656 C   0  0  0  0  0  0  0  0  0  1  0  0
    0.2471   -0.0927    0.0561 C   0  0  0  0  0  0  0  0  0  2  0  0
    0.0284    0.9982    1.0733 C   0  0  0  0  0  0  0  0  0  3  0  0
   -0.6283   -1.3076    0.2372 C   0  0  0  0  0  0  0  0  0  4  0  0
    1.1159    1.1776   -1.4543 H   0  0  0  0  0  0  0  0  0  5  0  0
   -0.5954    0.8193   -1.7086 H   0  0  0  0  0  0  0  0  0  6  0  0
    0.6211   -0.4137   -2.0488 H   0  0  0  0  0  0  0  0  0  7  0  0
    1.2580   -0.4292    0.2863 H   0  0  0  0  0  0  0  0  0  8  0  0
   -0.9480    1.4772    0.9280 H   0  0  0  0  0  0  0  0  0  9  0  0
    0.0543    0.6047    2.0917 H   0  0  0  0  0  0  0  0  0 10  0  0
    0.7943    1.7721    0.9895 H   0  0  0  0  0  0  0  0  0 11  0  0
   -0.3490   -2.1094   -0.4505 H   0  0  0  0  0  0  0  0  0 12  0  0
   -1.6801   -1.0633    0.0425 H   0  0  0  0  0  0  0  0  0 13  0  0
   -0.5686   -1.6945    1.2572 H   0  0  0  0  0  0  0  0  0 14  0  0
  1  5  1  0
  1  7  1  0
  1  6  1  0
  1  2  1  0
  2  8  1  0
  2  3  1  0
  2  4  1  0
  3 11  1  0
  3  9  1  0
  3 10  1  0
  4 14  1  0
  4 13  1  0
  4 12  1  0
M  END
>  <rmg_smiles>  (1) 
CC(C)C

>  <rmg_adjacency_list>  (1) 
1  C u0 p0 c0 {2,S} {3,S} {4,S} {5,S}
2  C u0 p0 c0 {1,S} {6,S} {7,S} {8,S}
3  C u0 p0 c0 {1,S} {9,S} {10,S} {11,S}
4  C u0 p0 c0 {1,S} {12,S} {13,S} {14,S}
5  H u0 p0 c0 {1,S}
6  H u0 p0 c0 {2,S}
7  H u0 p0 c0 {2,S}
8  H u0 p0 c0 {2,S}
9  H u0 p0 c0 {3,S}
10 H u0 p0 c0 {3,S}
11 H u0 p0 c0 {3,S}
12 H u0 p0 c0 {4,S}
13 H u0 p0 c0 {4,S}
14 H u0 p0 c0 {4,S}


>  <multiplicity>  (1) 
1

>  <reaction>  (1) 
rxn_991

>  <type>  (1) 
r1h

>  <role_mapnums>  (1) 
{"r1h_a": 2, "r1h_h": 8}

>  <role_mapidx>  (1) 
{"r1h_a": 1, "r1h_h": 7}

>  <ordered_mapped_smiles>  (1) 
[C:1]([C:2]([C:3]([H:9])([H:10])[H:11])([C:4]([H:12])([H:13])[H:14])[H:8])([H:5])([H:6])[H:7]

>  <mol_properties>  (1) 
{"1": {"label": "donator", "atom_type": "Cs"}, "7": {"label": "d_hydrogen", "atom_type": "H0"}}

>  <level_of_theory>  (1) 
wb97xd/def2tzvp

>  <lot_method>  (1) 
wb97xd

>  <lot_basis>  (1) 
def2tzvp

>  <spin_multiplicity>  (1) 
1.0

>  <optical_isomers>  (1) 
1.0

>  <modes>  (1) 
IdealGasTranslation(mass=(58.0782, 'amu')),         NonlinearRotor(             inertia = ([64.4719, 64.4729, 111.216

>  <frequency_value>  (1) 
unknown

>  <frequency_units>  (1) 
unknown

>  <frequency_list>  (1) 
unknown

>  <arkane_path>  (1) 
/home/calvin/Dropbox/PersonalFolders/Calvin/HAb_Converged/rxn_991/output/Species/rxn_991_CC[C]C/arkane/output.py

>  <path_exists>  (1) 
True

>  <E0_value>  (1) 
-415716.8409325626

>  <E0_units>  (1) 
kJ/mol

>  <thermo_class>  (1) 
NASA

>  <Cp0_value>  (1) 
33.257888

>  <Cp0_units>  (1) 
J/(mol*K)

>  <CpInf_value>  (1) 
332.57888

>  <CpInf_units>  (1) 
J/(mol*K)

>  <Tmin_value>  (1) 
10.0

>  <Tmin_units>  (1) 
K

>  <Tmax_value>  (1) 
3000.0

>  <Tmax_units>  (1) 
K

>  <polynomials>  (1) 
[{"name": "polynomial1", "class": "NASAPolynomial", "Tmin_value": 10.0, "Tmin_units": "K", "Tmax_value": 537.9603034685683, "Tmax_units": "K", "coeffs": [3.8629009726649763, 0.009551562219065134, 8.509114796921966e-05, -1.3152792572176514e-07, 6.364978014464346e-11, -49999182.623108104, 7.558180353338618]}, {"name": "polynomial2", "class": "NASAPolynomial", "Tmin_value": 537.9603034685683, "Tmin_units": "K", "Tmax_value": 3000.0, "Tmax_units": "K", "coeffs": [-1.5276502738194693, 0.04963322241350116, -2.6669649564592027e-05, 6.972390375116964e-09, -7.142611206673912e-13, -49998602.64627882, 30.22245702323121]}]

>  <H298_value>  (1) 
-99354.53464655264

>  <H298_units>  (1) 
kcal/mol

>  <S298_value>  (1) 
69.86089071019704

>  <S298_units>  (1) 
cal/(mol*K)

>  <Cp_T_value_list>  (1) 
[22.556546860274533, 28.833882763782896, 34.67395072204331, 39.872657390356764, 48.46330547142901, 55.03379983347341, 65.24265708963594, 70.36925032694421, 72.85845589242888]

>  <Cp_T_units>  (1) 
cal/(mol*K)

>  <T_list>  (1) 
[300.0, 400.0, 500.0, 600.0, 800.0, 1000.0, 1500.0, 2000.0, 2400.0]

>  <T_units>  (1) 
K

>  <yaml_path>  (1) 
/home/calvin/Dropbox/PersonalFolders/Calvin/HAb_Converged/rxn_991/output/Species/rxn_991_CC[C]C/rxn_991_CCCC.yml

>  <frequencies_cm1>  (1) 
[211.14606461936, 262.5523167248799, 263.43129084584, 369.12792889127996, 369.49187911324, 435.27759847884, 804.0141092068799, 925.1889321635999, 925.3743407672399, 953.3161040343199, 976.11449529672, 976.4029086801601, 1191.09233772464, 1191.12667265124, 1204.1602107886, 1353.0707874528, 1353.1943931885598, 1393.2083166481998, 1393.482996061, 1417.40757291588, 1467.51596479592, 1474.0945367324798, 1474.2524773948398, 1492.539259302, 1492.5873281992401, 1500.97878426028, 2997.8923132111195, 2999.95927579244, 3000.0210786603197, 3005.39106118056, 3068.60852803648, 3068.69779884564, 3077.35706733416, 3079.5751035925196, 3083.1459359589203, 3083.3244775772396]

>  <ZPE_kJmol>  (1) 
342.9343054204108

>  <E_elec_kJmol>  (1) 
-416059.77523798303

>  <E0_minus_Eelec_plus_ZPE_kJmol>  (1) 
0.0

>  <rxn>  (1) 
rxn_991

>  <species_type>  (1) 
r1

>  <species_folder>  (1) 
rxn_991_CC[C]C

>  <frequencies_cm1_list>  (1) 
[211.14606461936, 262.5523167248799, 263.43129084584, 369.12792889127996, 369.49187911324, 435.27759847884, 804.0141092068799, 925.1889321635999, 925.3743407672399, 953.3161040343199, 976.11449529672, 976.4029086801601, 1191.09233772464, 1191.12667265124, 1204.1602107886, 1353.0707874528, 1353.1943931885598, 1393.2083166481998, 1393.482996061, 1417.40757291588, 1467.51596479592, 1474.0945367324798, 1474.2524773948398, 1492.539259302, 1492.5873281992401, 1500.97878426028, 2997.8923132111195, 2999.95927579244, 3000.0210786603197, 3005.39106118056, 3068.60852803648, 3068.69779884564, 3077.35706733416, 3079.5751035925196, 3083.1459359589203, 3083.3244775772396]

>  <E0_kJmol>  (1) 
-415717

>  <H298_kJmol>  (1) 
-415699

$$$$

     RDKit          3D

  7  6  0  0  0  0  0  0  0  0999 V2000
   -0.4584   -1.6993   -0.0887 C   0  0  0  0  0  0  0  0  0  1  0  0
   -0.6008   -0.2242   -0.0684 C   0  0  0  0  0  0  0  0  0  2  0  0
    0.4996    0.9141    0.0773 S   0  0  0  0  0  0  0  0  0  3  0  0
    0.5741   -2.0258    0.0407 H   0  0  0  0  0  0  0  0  0  4  0  0
   -0.8479   -2.0810   -1.0373 H   0  0  0  0  0  0  0  0  0  5  0  0
   -1.0854   -2.1339    0.6951 H   0  0  0  0  0  0  0  0  0  6  0  0
   -1.6352    0.0735   -0.2403 H   0  0  0  0  0  0  0  0  0  7  0  0
  1  5  1  0
  1  4  1  0
  1  6  1  0
  1  2  1  0
  2  7  1  0
  2  3  1  0
M  END
>  <rmg_smiles>  (2) 
C[CH][S]

>  <rmg_adjacency_list>  (2) 
1 S u0 p2 c0 {3,S}
2 C u0 p0 c0 {3,S} {4,S} {5,S} {6,S}
3 C u0 p0 c0 {1,S} {2,S} {7,S}
4 H u0 p0 c0 {2,S}
5 H u0 p0 c0 {2,S}
6 H u0 p0 c0 {2,S}
7 H u0 p0 c0 {3,S}


>  <multiplicity>  (2) 
1

>  <reaction>  (2) 
rxn_991

>  <type>  (2) 
r2h

>  <role_mapnums>  (2) 
{"r2h_a": 2, "r2h_h": 7}

>  <role_mapidx>  (2) 
{"r2h_a": 1, "r2h_h": 6}

>  <ordered_mapped_smiles>  (2) 
[C:1]([CH:2]([SH:3])[H:7])([H:4])([H:5])[H:6]

>  <mol_properties>  (2) 
{"1": {"label": "acceptor", "atom_type": "Cs"}, "6": {"label": "a_hydrogen", "atom_type": "H0"}}

>  <level_of_theory>  (2) 
wb97xd/def2tzvp

>  <lot_method>  (2) 
wb97xd

>  <lot_basis>  (2) 
def2tzvp

>  <spin_multiplicity>  (2) 
1.0

>  <optical_isomers>  (2) 
1.0

>  <modes>  (2) 
IdealGasTranslation(mass=(60.0034, 'amu')),         NonlinearRotor(             inertia = ([10.1821, 87.4169, 94.5043

>  <frequency_value>  (2) 
unknown

>  <frequency_units>  (2) 
unknown

>  <frequency_list>  (2) 
unknown

>  <arkane_path>  (2) 
/home/calvin/Dropbox/PersonalFolders/Calvin/HAb_Converged/rxn_991/output/Species/rxn_991_CC=S/arkane/output.py

>  <path_exists>  (2) 
True

>  <E0_value>  (2) 
-1251692.87971102

>  <E0_units>  (2) 
kJ/mol

>  <thermo_class>  (2) 
NASA

>  <Cp0_value>  (2) 
33.257888

>  <Cp0_units>  (2) 
J/(mol*K)

>  <CpInf_value>  (2) 
157.97496800000002

>  <CpInf_units>  (2) 
J/(mol*K)

>  <Tmin_value>  (2) 
10.0

>  <Tmin_units>  (2) 
K

>  <Tmax_value>  (2) 
3000.0

>  <Tmax_units>  (2) 
K

>  <polynomials>  (2) 
[{"name": "polynomial1", "class": "NASAPolynomial", "Tmin_value": 10.0, "Tmin_units": "K", "Tmax_value": 485.39622899743466, "Tmax_units": "K", "coeffs": [3.975940530572461, 0.0013748720414305338, 5.132788135128821e-05, -8.432386137464513e-08, 4.4867749425835864e-11, -150543879.09878448, 8.090912724756667]}, {"name": "polynomial2", "class": "NASAPolynomial", "Tmin_value": 485.39622899743466, "Tmin_units": "K", "Tmax_value": 3000.0, "Tmax_units": "K", "coeffs": [1.4651349812966712, 0.022068299956711855, -1.2628378415974456e-05, 3.5280372570941277e-09, -3.855767973354191e-13, -150543635.38297567, 18.3889911716905]}]

>  <H298_value>  (2) 
-299158.68811573734

>  <H298_units>  (2) 
kcal/mol

>  <S298_value>  (2) 
65.13190747939298

>  <S298_units>  (2) 
cal/(mol*K)

>  <Cp_T_value_list>  (2) 
[14.098427248842778, 16.871855394466547, 19.393339934655586, 21.604877323173096, 25.209772375709086, 27.915317068508738, 32.01166447471848, 34.0672583894089, 35.111294878115146]

>  <Cp_T_units>  (2) 
cal/(mol*K)

>  <T_list>  (2) 
[300.0, 400.0, 500.0, 600.0, 800.0, 1000.0, 1500.0, 2000.0, 2400.0]

>  <T_units>  (2) 
K

>  <yaml_path>  (2) 
/home/calvin/Dropbox/PersonalFolders/Calvin/HAb_Converged/rxn_991/output/Species/rxn_991_CC=S/rxn_991_CC=S.yml

>  <frequencies_cm1>  (2) 
[170.46604358368, 396.01217641908, 770.63369356636, 837.4425937446399, 1045.2719044544401, 1080.9115582652398, 1167.33943550276, 1373.61680753024, 1381.75418513444, 1457.57943703788, 1469.4661886268, 3002.45885844892, 3059.70204807644, 3060.7801647716797, 3125.5770382512]

>  <ZPE_kJmol>  (2) 
139.95721324395197

>  <E_elec_kJmol>  (2) 
-1251832.836924264

>  <E0_minus_Eelec_plus_ZPE_kJmol>  (2) 
0.0

>  <rxn>  (2) 
rxn_991

>  <species_type>  (2) 
p0

>  <species_folder>  (2) 
rxn_991_CC=S

>  <frequencies_cm1_list>  (2) 
[170.46604358368, 396.01217641908, 770.63369356636, 837.4425937446399, 1045.2719044544401, 1080.9115582652398, 1167.33943550276, 1373.61680753024, 1381.75418513444, 1457.57943703788, 1469.4661886268, 3002.45885844892, 3059.70204807644, 3060.7801647716797, 3125.5770382512]

>  <E0_kJmol>  (2) 
-1.25169e+06

>  <H298_kJmol>  (2) 
-1.25168e+06

$$$$

     RDKit          3D

 20 18  0  0  0  0  0  0  0  0999 V2000
    1.5078   -1.5313   -0.2938 C   0  0  0  0  0  0  0  0  0  1  0  0
    1.3654   -0.0562   -0.2735 C   0  0  0  0  0  0  0  0  0  2  0  0
    2.4658    1.0821   -0.1278 S   0  0  0  0  0  0  0  0  0  3  0  0
    2.5403   -1.8578   -0.1645 H   0  0  0  0  0  0  0  0  0  4  0  0
    1.1183   -1.9130   -1.2425 H   0  0  0  0  0  0  0  0  0  5  0  0
    0.8808   -1.9660    0.4900 H   0  0  0  0  0  0  0  0  0  6  0  0
   -1.0579    1.2192   -2.1935 C   0  0  0  0  0  0  0  0  0  7  0  0
   -1.1681    0.7294   -0.7718 C   0  0  0  0  0  3  0  0  0  8  0  0
   -1.3867    1.8204    0.2454 C   0  0  0  0  0  0  0  0  0  9  0  0
   -2.0434   -0.4855   -0.5906 C   0  0  0  0  0  0  0  0  0 10  0  0
   -0.2993    1.9997   -2.2822 H   0  0  0  0  0  0  0  0  0 11  0  0
   -2.0105    1.6415   -2.5365 H   0  0  0  0  0  0  0  0  0 12  0  0
   -0.7941    0.4085   -2.8767 H   0  0  0  0  0  0  0  0  0 13  0  0
    0.0868    0.3117   -0.4860 H   0  0  0  0  0  0  0  0  0 14  0  0
   -2.3632    2.2993    0.1001 H   0  0  0  0  0  0  0  0  0 15  0  0
   -1.3609    1.4268    1.2638 H   0  0  0  0  0  0  0  0  0 16  0  0
   -0.6209    2.5942    0.1617 H   0  0  0  0  0  0  0  0  0 17  0  0
   -1.7641   -1.2872   -1.2783 H   0  0  0  0  0  0  0  0  0 18  0  0
   -3.0952   -0.2412   -0.7853 H   0  0  0  0  0  0  0  0  0 19  0  0
   -1.9837   -0.8724    0.4293 H   0  0  0  0  0  0  0  0  0 20  0  0
  1  5  1  0
  1  4  1  0
  1  2  1  0
  1  6  1  0
  2  3  1  0
  2 14  1  0
  7 13  1  0
  7 12  1  0
  7  8  1  0
  7 11  1  0
  8  9  1  0
  8 10  1  0
  9 17  1  0
  9 15  1  0
  9 16  1  0
 10 19  1  0
 10 20  1  0
 10 18  1  0
M  RAD  1   8   2
M  END
>  <rmg_smiles>  (3) 
C[C](C)C.C[CH][S]

>  <rmg_adjacency_list>  (3) 
multiplicity 2
1  S u0 p2 c0 {7,S}
2  C u0 p0 c0 {6,S} {11,S} {12,S} {13,S}
3  C u0 p0 c0 {6,S} {14,S} {15,S} {16,S}
4  C u0 p0 c0 {6,S} {17,S} {18,S} {19,S}
5  C u0 p0 c0 {7,S} {8,S} {9,S} {10,S}
6  C u1 p0 c0 {2,S} {3,S} {4,S}
7  C u0 p0 c0 {1,S} {5,S} {20,S}
8  H u0 p0 c0 {5,S}
9  H u0 p0 c0 {5,S}
10 H u0 p0 c0 {5,S}
11 H u0 p0 c0 {2,S}
12 H u0 p0 c0 {2,S}
13 H u0 p0 c0 {2,S}
14 H u0 p0 c0 {3,S}
15 H u0 p0 c0 {3,S}
16 H u0 p0 c0 {3,S}
17 H u0 p0 c0 {4,S}
18 H u0 p0 c0 {4,S}
19 H u0 p0 c0 {4,S}
20 H u0 p0 c0 {7,S}


>  <multiplicity>  (3) 
2

>  <reaction>  (3) 
rxn_991

>  <type>  (3) 
ts

>  <role_mapnums>  (3) 
{"*2": 14, "*1": 8, "*3": 2, "*0": 3, "*4": 7}

>  <role_mapidx>  (3) 
{"*2": 13, "*1": 7, "*3": 1, "*0": 2, "*4": 6}

>  <ordered_mapped_smiles>  (3) 
[C:1]([CH:2]([SH:3])[H:14])([H:4])([H:5])[H:6].[C:7]([C:8]([C:9]([H:15])([H:16])[H:17])[C:10]([H:18])([H:19])[H:20])([H:11])([H:12])[H:13]

>  <mol_properties>  (3) 
{"1": {"label": "*3", "atom_type": "Cs"}, "2": {"label": "*0", "atom_type": "S2s"}, "6": {"label": "*4", "atom_type": "Cs"}, "7": {"label": "*1", "atom_type": "Cs"}, "13": {"label": "*2", "atom_type": "H0"}}

>  <level_of_theory>  (3) 
wb97xd/def2tzvp

>  <lot_method>  (3) 
wb97xd

>  <lot_basis>  (3) 
def2tzvp

>  <spin_multiplicity>  (3) 
2.0

>  <optical_isomers>  (3) 
2.0

>  <modes>  (3) 
IdealGasTranslation(mass=(117.074, 'amu')),         NonlinearRotor(             inertia = ([194.807, 444.02, 522.95

>  <frequency_value>  (3) 
-1745.24

>  <frequency_units>  (3) 
cm^-1

>  <frequency_list>  (3) 
unknown

>  <arkane_path>  (3) 
/home/calvin/Dropbox/PersonalFolders/Calvin/HAb_Converged/rxn_991/output/rxns/TS0/arkane/output.py

>  <path_exists>  (3) 
True

>  <E0_value>  (3) 
-1665670.0

>  <E0_units>  (3) 
kJ/mol

>  <thermo_class>  (3) 
unknown

>  <Cp0_value>  (3) 
unknown

>  <Cp0_units>  (3) 
unknown

>  <CpInf_value>  (3) 
unknown

>  <CpInf_units>  (3) 
unknown

>  <Tmin_value>  (3) 
unknown

>  <Tmin_units>  (3) 
unknown

>  <Tmax_value>  (3) 
unknown

>  <Tmax_units>  (3) 
unknown

>  <polynomials>  (3) 
unknown

>  <H298_value>  (3) 
unknown

>  <H298_units>  (3) 
unknown

>  <S298_value>  (3) 
unknown

>  <S298_units>  (3) 
unknown

>  <Cp_T_value_list>  (3) 
unknown

>  <Cp_T_units>  (3) 
unknown

>  <T_list>  (3) 
unknown

>  <T_units>  (3) 
unknown

>  <yaml_path>  (3) 
unknown

>  <frequencies_cm1>  (3) 
unknown

>  <ZPE_kJmol>  (3) 
unknown

>  <E_elec_kJmol>  (3) 
unknown

>  <E0_minus_Eelec_plus_ZPE_kJmol>  (3) 
unknown

>  <rxn>  (3) 
unknown

>  <species_type>  (3) 
unknown

>  <species_folder>  (3) 
unknown

>  <frequencies_cm1_list>  (3) 
[]

>  <ts_imag_freq_cm1>  (3) 
-1766.437

>  <ts_freq_out_path>  (3) 
/home/calvin/Dropbox/PersonalFolders/Calvin/HAb_Converged/rxn_991/output/rxns/TS0/geometry/freq.out

>  <E0_kJmol>  (3) 
-1.66567e+06

>  <H298_kJmol>  (3) 
unknown

$$$$

     RDKit          3D

 13 12  0  0  0  0  0  0  0  0999 V2000
   -1.3649   -0.5967   -0.3477 C   0  0  0  0  0  0  0  0  0  1  0  0
   -0.1601   -0.2776    0.4669 C   0  0  0  0  0  3  0  0  0  2  0  0
    1.1241   -0.9571    0.1414 C   0  0  0  0  0  0  0  0  0  3  0  0
   -0.1188    1.0130    1.2082 C   0  0  0  0  0  0  0  0  0  4  0  0
   -1.4265   -1.6632   -0.5770 H   0  0  0  0  0  0  0  0  0  5  0  0
   -2.2858   -0.3004    0.1602 H   0  0  0  0  0  0  0  0  0  6  0  0
   -1.3532   -0.0668   -1.3139 H   0  0  0  0  0  0  0  0  0  7  0  0
    1.6174   -0.4963   -0.7297 H   0  0  0  0  0  0  0  0  0  8  0  0
    0.9723   -2.0104   -0.1064 H   0  0  0  0  0  0  0  0  0  9  0  0
    1.8338   -0.8977    0.9701 H   0  0  0  0  0  0  0  0  0 10  0  0
   -1.0851    1.2507    1.6593 H   0  0  0  0  0  0  0  0  0 11  0  0
    0.6358    1.0009    1.9983 H   0  0  0  0  0  0  0  0  0 12  0  0
    0.1343    1.8546    0.5434 H   0  0  0  0  0  0  0  0  0 13  0  0
  1  5  1  0
  1  7  1  0
  1  6  1  0
  1  2  1  0
  2  3  1  0
  2  4  1  0
  3  9  1  0
  3 10  1  0
  3  8  1  0
  4 13  1  0
  4 12  1  0
  4 11  1  0
M  RAD  1   2   2
M  END
>  <rmg_smiles>  (4) 
C[C](C)C

>  <rmg_adjacency_list>  (4) 
multiplicity 2
1  C u0 p0 c0 {4,S} {5,S} {6,S} {7,S}
2  C u0 p0 c0 {4,S} {8,S} {9,S} {10,S}
3  C u0 p0 c0 {4,S} {11,S} {12,S} {13,S}
4  C u1 p0 c0 {1,S} {2,S} {3,S}
5  H u0 p0 c0 {1,S}
6  H u0 p0 c0 {1,S}
7  H u0 p0 c0 {1,S}
8  H u0 p0 c0 {2,S}
9  H u0 p0 c0 {2,S}
10 H u0 p0 c0 {2,S}
11 H u0 p0 c0 {3,S}
12 H u0 p0 c0 {3,S}
13 H u0 p0 c0 {3,S}


>  <multiplicity>  (4) 
2

>  <reaction>  (4) 
rxn_991

>  <type>  (4) 
r1

>  <role_mapnums>  (4) 
{}

>  <role_mapidx>  (4) 
{}

>  <ordered_mapped_smiles>  (4) 
[C:1]([C:2]([C:3]([H:8])([H:9])[H:10])[C:4]([H:11])([H:12])[H:13])([H:5])([H:6])[H:7]

>  <level_of_theory>  (4) 
wb97xd/def2tzvp

>  <lot_method>  (4) 
wb97xd

>  <lot_basis>  (4) 
def2tzvp

>  <spin_multiplicity>  (4) 
2.0

>  <optical_isomers>  (4) 
1.0

>  <modes>  (4) 
IdealGasTranslation(mass=(57.0704, 'amu')),         NonlinearRotor(             inertia = ([62.748, 62.7522, 115.629

>  <frequency_value>  (4) 
unknown

>  <frequency_units>  (4) 
unknown

>  <frequency_list>  (4) 
unknown

>  <arkane_path>  (4) 
/home/calvin/Dropbox/PersonalFolders/Calvin/HAb_Converged/rxn_991/output/Species/rxn_991_C[C][C]C/arkane/output.py

>  <path_exists>  (4) 
True

>  <E0_value>  (4) 
-414011.8577421408

>  <E0_units>  (4) 
kJ/mol

>  <thermo_class>  (4) 
NASA

>  <Cp0_value>  (4) 
33.257888

>  <Cp0_units>  (4) 
J/(mol*K)

>  <CpInf_value>  (4) 
307.635464

>  <CpInf_units>  (4) 
J/(mol*K)

>  <Tmin_value>  (4) 
10.0

>  <Tmin_units>  (4) 
K

>  <Tmax_value>  (4) 
3000.0

>  <Tmax_units>  (4) 
K

>  <polynomials>  (4) 
[{"name": "polynomial1", "class": "NASAPolynomial", "Tmin_value": 10.0, "Tmin_units": "K", "Tmax_value": 460.8206797225192, "Tmax_units": "K", "coeffs": [3.629287789794759, 0.03766114276668031, -8.849942553929421e-05, 2.2799214040927144e-07, -1.910950322581369e-10, -49794124.395958856, 8.37336360605169]}, {"name": "polynomial2", "class": "NASAPolynomial", "Tmin_value": 460.8206797225192, "Tmin_units": "K", "Tmax_value": 3000.0, "Tmax_units": "K", "coeffs": [-0.48065054884988995, 0.045787190920821376, -2.527683720096e-05, 6.798407839329378e-09, -7.152814095411503e-13, -49793453.09875906, 28.19105641121047]}]

>  <H298_value>  (4) 
-98946.572024172

>  <H298_units>  (4) 
kcal/mol

>  <S298_value>  (4) 
75.46940734517942

>  <S298_units>  (4) 
cal/(mol*K)

>  <Cp_T_value_list>  (4) 
[22.993172237514546, 28.284508218770192, 33.581467821601535, 38.289014421286716, 46.023169846888514, 51.89158474106606, 60.90940235301068, 65.43700634683532, 67.69199331623535]

>  <Cp_T_units>  (4) 
cal/(mol*K)

>  <T_list>  (4) 
[300.0, 400.0, 500.0, 600.0, 800.0, 1000.0, 1500.0, 2000.0, 2400.0]

>  <T_units>  (4) 
K

>  <yaml_path>  (4) 
/home/calvin/Dropbox/PersonalFolders/Calvin/HAb_Converged/rxn_991/output/Species/rxn_991_C[C][C]C/rxn_991_CCCC.yml

>  <frequencies_cm1>  (4) 
[125.52162466427998, 129.31906754623998, 129.46327423796, 257.14113229272, 382.52541725059996, 382.89623445788, 764.0551216298, 930.3597721095599, 930.3872400508399, 963.9530642949999, 1004.1592633436, 1004.57814944812, 1087.74420865864, 1293.58209362564, 1293.7743692146, 1387.15163559596, 1387.57052170048, 1410.6573263463201, 1453.5210487137597, 1456.6249260783998, 1456.74166482884, 1475.7288792386398, 1477.9949843942402, 1478.2627968217198, 2923.3237196212394, 2923.6876698432, 2931.1795508273203, 3026.5894448633994, 3027.0426658945194, 3028.1001816337994, 3072.4265718743995, 3076.29955159488, 3076.69783674344]

>  <ZPE_kJmol>  (4) 
303.546881087594

>  <E_elec_kJmol>  (4) 
-414315.4046232284

>  <E0_minus_Eelec_plus_ZPE_kJmol>  (4) 
0.0

>  <rxn>  (4) 
rxn_991

>  <species_type>  (4) 
p1

>  <species_folder>  (4) 
rxn_991_C[C][C]C

>  <frequencies_cm1_list>  (4) 
[125.52162466427998, 129.31906754623998, 129.46327423796, 257.14113229272, 382.52541725059996, 382.89623445788, 764.0551216298, 930.3597721095599, 930.3872400508399, 963.9530642949999, 1004.1592633436, 1004.57814944812, 1087.74420865864, 1293.58209362564, 1293.7743692146, 1387.15163559596, 1387.57052170048, 1410.6573263463201, 1453.5210487137597, 1456.6249260783998, 1456.74166482884, 1475.7288792386398, 1477.9949843942402, 1478.2627968217198, 2923.3237196212394, 2923.6876698432, 2931.1795508273203, 3026.5894448633994, 3027.0426658945194, 3028.1001816337994, 3072.4265718743995, 3076.29955159488, 3076.69783674344]

>  <E0_kJmol>  (4) 
-414012

>  <H298_kJmol>  (4) 
-413992

$$$$

     RDKit          3D

  6  5  0  0  0  0  0  0  0  0999 V2000
   -0.5036    0.1196    0.0353 C   0  0  0  0  0  0  0  0  0  1  0  0
    0.9526    0.1121    0.2227 C   0  0  0  0  0  3  0  0  0  2  0  0
    2.2066   -0.6670   -0.2771 S   0  0  0  0  0  0  0  0  0  3  0  0
   -0.8527   -0.6450   -0.6654 H   0  0  0  0  0  0  0  0  0  4  0  0
   -0.8134    1.1060   -0.3189 H   0  0  0  0  0  0  0  0  0  5  0  0
   -0.9894   -0.0257    1.0035 H   0  0  0  0  0  0  0  0  0  6  0  0
  1  5  1  0
  1  4  1  0
  1  6  1  0
  1  2  1  0
  2  3  1  0
M  RAD  1   2   2
M  END
>  <rmg_smiles>  (5) 
C[C][S]

>  <rmg_adjacency_list>  (5) 
multiplicity 2
1 S u0 p2 c0 {3,S}
2 C u0 p0 c0 {3,S} {4,S} {5,S} {6,S}
3 C u1 p1 c0 {1,S} {2,S}
4 H u0 p0 c0 {2,S}
5 H u0 p0 c0 {2,S}
6 H u0 p0 c0 {2,S}


>  <multiplicity>  (5) 
2

>  <reaction>  (5) 
rxn_991

>  <type>  (5) 
r2

>  <role_mapnums>  (5) 
{}

>  <role_mapidx>  (5) 
{}

>  <ordered_mapped_smiles>  (5) 
[C:1]([CH:2][SH:3])([H:4])([H:5])[H:6]

>  <level_of_theory>  (5) 
wb97xd/def2tzvp

>  <lot_method>  (5) 
wb97xd

>  <lot_basis>  (5) 
def2tzvp

>  <spin_multiplicity>  (5) 
2.0

>  <optical_isomers>  (5) 
1.0

>  <modes>  (5) 
IdealGasTranslation(mass=(58.9956, 'amu')),         NonlinearRotor(             inertia = ([5.66954, 91.603, 94.188

>  <frequency_value>  (5) 
unknown

>  <frequency_units>  (5) 
unknown

>  <frequency_list>  (5) 
unknown

>  <arkane_path>  (5) 
/home/calvin/Dropbox/PersonalFolders/Calvin/HAb_Converged/rxn_991/output/Species/rxn_991_C[C]=S/arkane/output.py

>  <path_exists>  (5) 
True

>  <E0_value>  (5) 
-1250003.2064702734

>  <E0_units>  (5) 
kJ/mol

>  <thermo_class>  (5) 
NASA

>  <Cp0_value>  (5) 
33.257888

>  <Cp0_units>  (5) 
J/(mol*K)

>  <CpInf_value>  (5) 
133.031552

>  <CpInf_units>  (5) 
J/(mol*K)

>  <Tmin_value>  (5) 
10.0

>  <Tmin_units>  (5) 
K

>  <Tmax_value>  (5) 
3000.0

>  <Tmax_units>  (5) 
K

>  <polynomials>  (5) 
[{"name": "polynomial1", "class": "NASAPolynomial", "Tmin_value": 10.0, "Tmin_units": "K", "Tmax_value": 414.4508458600895, "Tmax_units": "K", "coeffs": [3.8722192235869226, 0.014175920970019464, -4.245442477448121e-05, 1.2618528647908837e-07, -1.1768034850655946e-10, -150340659.25251177, 8.372910337485523]}, {"name": "polynomial2", "class": "NASAPolynomial", "Tmin_value": 414.4508458600895, "Tmin_units": "K", "Tmax_value": 3000.0, "Tmax_units": "K", "coeffs": [2.2683647912903737, 0.017429006380879325, -9.978377075683127e-06, 2.767650940638552e-09, -2.986440803775346e-13, -150340421.30402467, 15.964697866265356]}]

>  <H298_value>  (5) 
-298754.7512654587

>  <H298_units>  (5) 
kcal/mol

>  <S298_value>  (5) 
66.87697545270875

>  <S298_units>  (5) 
cal/(mol*K)

>  <Cp_T_value_list>  (5) 
[13.429321344863292, 15.526284964323995, 17.518347730565523, 19.261319354032764, 22.097977207307814, 24.22007473490704, 27.402508948530905, 28.965067860154083, 29.756908886650834]

>  <Cp_T_units>  (5) 
cal/(mol*K)

>  <T_list>  (5) 
[300.0, 400.0, 500.0, 600.0, 800.0, 1000.0, 1500.0, 2000.0, 2400.0]

>  <T_units>  (5) 
K

>  <yaml_path>  (5) 
/home/calvin/Dropbox/PersonalFolders/Calvin/HAb_Converged/rxn_991/output/Species/rxn_991_C[C]=S/rxn_991_CC=S.yml

>  <frequencies_cm1>  (5) 
[110.24258232727999, 320.6195445908, 796.9754492538799, 970.2912917453599, 1043.01953326948, 1358.45450394368, 1382.55075543156, 1440.90639668092, 1457.8953183626, 2987.6124361870793, 3069.2540246565595, 3079.1768184439593]

>  <ZPE_kJmol>  (5) 
107.7656145644721

>  <E_elec_kJmol>  (5) 
-1250110.972084838

>  <E0_minus_Eelec_plus_ZPE_kJmol>  (5) 
0.0

>  <rxn>  (5) 
rxn_991

>  <species_type>  (5) 
r0

>  <species_folder>  (5) 
rxn_991_C[C]=S

>  <frequencies_cm1_list>  (5) 
[110.24258232727999, 320.6195445908, 796.9754492538799, 970.2912917453599, 1043.01953326948, 1358.45450394368, 1382.55075543156, 1440.90639668092, 1457.8953183626, 2987.6124361870793, 3069.2540246565595, 3079.1768184439593]

>  <E0_kJmol>  (5) 
-1.25e+06

>  <H298_kJmol>  (5) 
-1.24999e+06

$$$$
