
     RDKit          3D

  6  5  0  0  0  0  0  0  0  0999 V2000
    0.2425   -0.1962    1.1387 C   0  0  0  0  0  0  0  0  0  1  0  0
   -0.1554    0.0660   -0.5470 S   0  0  0  0  0  0  0  0  0  2  0  0
    0.3641    0.7770    1.6063 H   0  0  0  0  0  0  0  0  0  3  0  0
   -0.5894   -0.6556    1.6653 H   0  0  0  0  0  0  0  0  0  4  0  0
    1.1946   -0.6844    1.3286 H   0  0  0  0  0  0  0  0  0  5  0  0
    1.0389    0.5290   -0.9382 H   0  0  0  0  0  0  0  0  0  6  0  0
  1  5  1  0
  1  4  1  0
  1  3  1  0
  1  2  1  0
  2  6  1  0
M  END
>  <rmg_smiles>  (1) 
CS

>  <rmg_adjacency_list>  (1) 
1 S u0 p2 c0 {2,S} {6,S}
2 C u0 p0 c0 {1,S} {3,S} {4,S} {5,S}
3 H u0 p0 c0 {2,S}
4 H u0 p0 c0 {2,S}
5 H u0 p0 c0 {2,S}
6 H u0 p0 c0 {1,S}


>  <multiplicity>  (1) 
1

>  <reaction>  (1) 
rxn_1862

>  <type>  (1) 
r1h

>  <role_mapnums>  (1) 
{"r1h_a": 1, "r1h_h": 3}

>  <role_mapidx>  (1) 
{"r1h_a": 0, "r1h_h": 2}

>  <ordered_mapped_smiles>  (1) 
[C:1]([S:2][H:6])([H:3])([H:4])[H:5]

>  <mol_properties>  (1) 
{"0": {"label": "donator", "atom_type": "Cs"}, "2": {"label": "d_hydrogen", "atom_type": "H0"}}

>  <level_of_theory>  (1) 
wb97xd/def2tzvp

>  <lot_method>  (1) 
wb97xd

>  <lot_basis>  (1) 
def2tzvp

>  <spin_multiplicity>  (1) 
1.0

>  <optical_isomers>  (1) 
1.0

>  <modes>  (1) 
IdealGasTranslation(mass=(48.0034, 'amu')),         NonlinearRotor(             inertia = ([4.88218, 38.8439, 40.5133

>  <frequency_value>  (1) 
unknown

>  <frequency_units>  (1) 
unknown

>  <frequency_list>  (1) 
unknown

>  <arkane_path>  (1) 
/home/calvin/Dropbox/PersonalFolders/Calvin/HAb_Converged/rxn_1862/output/Species/rxn_1862_CS/arkane/output.py

>  <path_exists>  (1) 
True

>  <E0_value>  (1) 
-1151727.0074722518

>  <E0_units>  (1) 
kJ/mol

>  <thermo_class>  (1) 
NASA

>  <Cp0_value>  (1) 
33.257888

>  <Cp0_units>  (1) 
J/(mol*K)

>  <CpInf_value>  (1) 
133.031552

>  <CpInf_units>  (1) 
J/(mol*K)

>  <Tmin_value>  (1) 
10.0

>  <Tmin_units>  (1) 
K

>  <Tmax_value>  (1) 
3000.0

>  <Tmax_units>  (1) 
K

>  <polynomials>  (1) 
[{"name": "polynomial1", "class": "NASAPolynomial", "Tmin_value": 10.0, "Tmin_units": "K", "Tmax_value": 512.0046987811082, "Tmax_units": "K", "coeffs": [3.9928587497669135, 0.0002559754074249204, 3.857280640825913e-05, -5.9282603001709694e-08, 2.982147399711347e-11, -138520762.43019888, 6.388595841908656]}, {"name": "polynomial2", "class": "NASAPolynomial", "Tmin_value": 512.0046987811082, "Tmin_units": "K", "Tmax_value": 3000.0, "Tmax_units": "K", "coeffs": [1.9274442242810899, 0.01639190572497184, -8.700073442106705e-06, 2.2701656845537463e-09, -2.333640907578926e-13, -138520550.93016994, 14.970390653960273]}]

>  <H298_value>  (1) 
-275266.5007544268

>  <H298_units>  (1) 
kcal/mol

>  <S298_value>  (1) 
60.53254852214023

>  <S298_units>  (1) 
cal/(mol*K)

>  <Cp_T_value_list>  (1) 
[12.285164170505567, 14.379905317207566, 16.329998202821564, 18.065044527000737, 20.944482261362513, 23.163034177843237, 26.669386406809583, 28.493484761208425, 29.402518411604955]

>  <Cp_T_units>  (1) 
cal/(mol*K)

>  <T_list>  (1) 
[300.0, 400.0, 500.0, 600.0, 800.0, 1000.0, 1500.0, 2000.0, 2400.0]

>  <T_units>  (1) 
K

>  <yaml_path>  (1) 
/home/calvin/Dropbox/PersonalFolders/Calvin/HAb_Converged/rxn_1862/output/Species/rxn_1862_CS/rxn_1862_CS.yml

>  <frequencies_cm1>  (1) 
[239.23203457815995, 718.5407429288399, 797.72395065376, 969.0552343877599, 1092.82577779544, 1352.90597980512, 1462.0155095546, 1475.7082782826799, 2706.3887863771197, 3036.2032243114, 3126.3324066364, 3127.7195376710397]

>  <ZPE_kJmol>  (1) 
120.25255493508004

>  <E_elec_kJmol>  (1) 
-1151847.260027187

>  <E0_minus_Eelec_plus_ZPE_kJmol>  (1) 
0.0

>  <rxn>  (1) 
rxn_1862

>  <species_type>  (1) 
r1

>  <species_folder>  (1) 
rxn_1862_CS

>  <frequencies_cm1_list>  (1) 
[239.23203457815995, 718.5407429288399, 797.72395065376, 969.0552343877599, 1092.82577779544, 1352.90597980512, 1462.0155095546, 1475.7082782826799, 2706.3887863771197, 3036.2032243114, 3126.3324066364, 3127.7195376710397]

>  <E0_kJmol>  (1) 
-1.15173e+06

>  <H298_kJmol>  (1) 
-1.15172e+06

$$$$

     RDKit          3D

  6  5  0  0  0  0  0  0  0  0999 V2000
    0.3618    0.5512   -1.3129 S   0  0  0  0  0  0  0  0  0  1  0  0
   -0.0569   -0.5293   -0.2168 C   0  0  0  0  0  0  0  0  0  2  0  0
   -0.2995   -0.3889    1.1515 C   0  0  0  0  0  2  0  0  0  3  0  0
   -0.5268   -0.3750    2.3338 C   0  0  0  0  0  2  0  0  0  4  0  0
   -0.7223   -0.3316    3.3790 H   0  0  0  0  0  0  0  0  0  5  0  0
   -0.2068   -1.5487   -0.5725 H   0  0  0  0  0  0  0  0  0  6  0  0
  1  2  1  0
  2  6  1  0
  2  3  1  0
  3  4  1  0
  4  5  1  0
M  RAD  2   3   3   4   3
M  END
>  <rmg_smiles>  (2) 
[CH][C][CH][S]

>  <rmg_adjacency_list>  (2) 
1 S u0 p2 c0 {2,S}
2 C u0 p0 c0 {1,S} {3,S} {5,S}
3 C u0 p1 c0 {2,S} {4,S}
4 C u0 p1 c0 {3,S} {6,S}
5 H u0 p0 c0 {2,S}
6 H u0 p0 c0 {4,S}


>  <multiplicity>  (2) 
1

>  <reaction>  (2) 
rxn_1862

>  <type>  (2) 
r2h

>  <role_mapnums>  (2) 
{"r2h_a": 2, "r2h_h": 6}

>  <role_mapidx>  (2) 
{"r2h_a": 1, "r2h_h": 5}

>  <ordered_mapped_smiles>  (2) 
[SH:1][CH:2]([C:3][C:4][H:5])[H:6]

>  <mol_properties>  (2) 
{"1": {"label": "acceptor", "atom_type": "Cs"}, "5": {"label": "a_hydrogen", "atom_type": "H0"}}

>  <level_of_theory>  (2) 
wb97xd/def2tzvp

>  <lot_method>  (2) 
wb97xd

>  <lot_basis>  (2) 
def2tzvp

>  <spin_multiplicity>  (2) 
1.0

>  <optical_isomers>  (2) 
1.0

>  <modes>  (2) 
IdealGasTranslation(mass=(69.9877, 'amu')),         NonlinearRotor(             inertia = ([11.6212, 161.614, 173.235

>  <frequency_value>  (2) 
unknown

>  <frequency_units>  (2) 
unknown

>  <frequency_list>  (2) 
unknown

>  <arkane_path>  (2) 
/home/calvin/Dropbox/PersonalFolders/Calvin/HAb_Converged/rxn_1862/output/Species/rxn_1862_S=CCtC/arkane/output.py

>  <path_exists>  (2) 
True

>  <E0_value>  (2) 
-1348403.2166827258

>  <E0_units>  (2) 
kJ/mol

>  <thermo_class>  (2) 
NASA

>  <Cp0_value>  (2) 
33.257888

>  <Cp0_units>  (2) 
J/(mol*K)

>  <CpInf_value>  (2) 
133.031552

>  <CpInf_units>  (2) 
J/(mol*K)

>  <Tmin_value>  (2) 
10.0

>  <Tmin_units>  (2) 
K

>  <Tmax_value>  (2) 
3000.0

>  <Tmax_units>  (2) 
K

>  <polynomials>  (2) 
[{"name": "polynomial1", "class": "NASAPolynomial", "Tmin_value": 10.0, "Tmin_units": "K", "Tmax_value": 526.1931186551269, "Tmax_units": "K", "coeffs": [3.9344179530593837, 0.004065911246821127, 6.553703840412658e-05, -1.443495918647441e-07, 9.394913877894461e-11, -162175444.89571163, 8.726396833892856]}, {"name": "polynomial2", "class": "NASAPolynomial", "Tmin_value": 526.1931186551269, "Tmin_units": "K", "Tmax_value": 3000.0, "Tmax_units": "K", "coeffs": [4.093919333345027, 0.01690723381309554, -1.1131975130527351e-05, 3.5450645767000207e-09, -4.3283902101660573e-13, -162175656.24187788, 6.210553362827294]}]

>  <H298_value>  (2) 
-322272.7386756088

>  <H298_units>  (2) 
kcal/mol

>  <S298_value>  (2) 
67.91208442892471

>  <S298_units>  (2) 
cal/(mol*K)

>  <Cp_T_value_list>  (2) 
[15.73087337153612, 18.308993297637482, 20.229276045615624, 21.740807345987587, 24.110825163743634, 25.79672956901056, 28.180916020636673, 29.441614337399088, 30.200603661820587]

>  <Cp_T_units>  (2) 
cal/(mol*K)

>  <T_list>  (2) 
[300.0, 400.0, 500.0, 600.0, 800.0, 1000.0, 1500.0, 2000.0, 2400.0]

>  <T_units>  (2) 
K

>  <yaml_path>  (2) 
/home/calvin/Dropbox/PersonalFolders/Calvin/HAb_Converged/rxn_1862/output/Species/rxn_1862_S=CCtC/rxn_1862_S=CCtC.yml

>  <frequencies_cm1>  (2) 
[195.80521941447998, 323.02298945279995, 518.06597349676, 673.6855948186, 732.2953145248, 869.92343430824, 913.78286954708, 1131.63797882408, 1352.94031473172, 2194.1048145197997, 3080.7287571262796, 3429.86689175104]

>  <ZPE_kJmol>  (2) 
92.2073468060466

>  <E_elec_kJmol>  (2) 
-1348495.424029532

>  <E0_minus_Eelec_plus_ZPE_kJmol>  (2) 
0.0

>  <rxn>  (2) 
rxn_1862

>  <species_type>  (2) 
p0

>  <species_folder>  (2) 
rxn_1862_S=CCtC

>  <frequencies_cm1_list>  (2) 
[195.80521941447998, 323.02298945279995, 518.06597349676, 673.6855948186, 732.2953145248, 869.92343430824, 913.78286954708, 1131.63797882408, 1352.94031473172, 2194.1048145197997, 3080.7287571262796, 3429.86689175104]

>  <E0_kJmol>  (2) 
-1.3484e+06

>  <H298_kJmol>  (2) 
-1.34839e+06

$$$$

     RDKit          3D

 11  9  0  0  0  0  0  0  0  0999 V2000
    0.7183    1.6890   -0.3223 S   0  0  0  0  0  0  0  0  0  1  0  0
    0.2996    0.6084    0.7738 C   0  0  0  0  0  0  0  0  0  2  0  0
    0.0570    0.7489    2.1422 C   0  0  0  0  0  0  0  0  0  3  0  0
   -0.1703    0.7628    3.3245 C   0  0  0  0  0  0  0  0  0  4  0  0
   -0.3657    0.8062    4.3696 H   0  0  0  0  0  0  0  0  0  5  0  0
   -0.0372   -1.8711   -0.2559 C   0  0  0  0  0  3  0  0  0  6  0  0
   -0.4352   -1.6089   -1.9416 S   0  0  0  0  0  0  0  0  0  7  0  0
    0.1190   -0.6202    0.3451 H   0  0  0  0  0  0  0  0  0  8  0  0
   -0.8692   -2.3305    0.2708 H   0  0  0  0  0  0  0  0  0  9  0  0
    0.9148   -2.3593   -0.0660 H   0  0  0  0  0  0  0  0  0 10  0  0
    0.7591   -1.1459   -2.3327 H   0  0  0  0  0  0  0  0  0 11  0  0
  1  2  1  0
  2  8  1  0
  2  3  1  0
  3  4  1  0
  4  5  1  0
  6  9  1  0
  6  7  1  0
  6 10  1  0
  7 11  1  0
M  RAD  1   6   2
M  END
>  <rmg_smiles>  (3) 
[CH][C][CH][S].[CH2]S

>  <rmg_adjacency_list>  (3) 
multiplicity 2
1  S u0 p2 c0 {4,S} {10,S}
2  S u0 p2 c0 {3,S}
3  C u0 p0 c0 {2,S} {5,S} {7,S}
4  C u1 p0 c0 {1,S} {8,S} {9,S}
5  C u0 p1 c0 {3,S} {6,S}
6  C u0 p1 c0 {5,S} {11,S}
7  H u0 p0 c0 {3,S}
8  H u0 p0 c0 {4,S}
9  H u0 p0 c0 {4,S}
10 H u0 p0 c0 {1,S}
11 H u0 p0 c0 {6,S}


>  <multiplicity>  (3) 
2

>  <reaction>  (3) 
rxn_1862

>  <type>  (3) 
ts

>  <role_mapnums>  (3) 
{"*2": 8, "*1": 6, "*3": 2, "*0": 1, "*4": 7}

>  <role_mapidx>  (3) 
{"*2": 7, "*1": 5, "*3": 1, "*0": 0, "*4": 6}

>  <ordered_mapped_smiles>  (3) 
[SH:1][CH:2]([CH2:3][CH2:4][H:5])[H:8].[C:6]([S:7][H:11])([H:9])[H:10]

>  <mol_properties>  (3) 
{"0": {"label": "*0", "atom_type": "S2s"}, "1": {"label": "*3", "atom_type": "Cs"}, "5": {"label": "*1", "atom_type": "Cs"}, "6": {"label": "*4", "atom_type": "S2s"}, "7": {"label": "*2", "atom_type": "H0"}}

>  <level_of_theory>  (3) 
wb97xd/def2tzvp

>  <lot_method>  (3) 
wb97xd

>  <lot_basis>  (3) 
def2tzvp

>  <spin_multiplicity>  (3) 
2.0

>  <optical_isomers>  (3) 
2.0

>  <modes>  (3) 
IdealGasTranslation(mass=(116.983, 'amu')),         NonlinearRotor(             inertia = ([159.297, 464.819, 610.398

>  <frequency_value>  (3) 
-1720.05

>  <frequency_units>  (3) 
cm^-1

>  <frequency_list>  (3) 
unknown

>  <arkane_path>  (3) 
/home/calvin/Dropbox/PersonalFolders/Calvin/HAb_Converged/rxn_1862/output/rxns/TS0/arkane/output.py

>  <path_exists>  (3) 
True

>  <E0_value>  (3) 
-2498390.0

>  <E0_units>  (3) 
kJ/mol

>  <thermo_class>  (3) 
unknown

>  <Cp0_value>  (3) 
unknown

>  <Cp0_units>  (3) 
unknown

>  <CpInf_value>  (3) 
unknown

>  <CpInf_units>  (3) 
unknown

>  <Tmin_value>  (3) 
unknown

>  <Tmin_units>  (3) 
unknown

>  <Tmax_value>  (3) 
unknown

>  <Tmax_units>  (3) 
unknown

>  <polynomials>  (3) 
unknown

>  <H298_value>  (3) 
unknown

>  <H298_units>  (3) 
unknown

>  <S298_value>  (3) 
unknown

>  <S298_units>  (3) 
unknown

>  <Cp_T_value_list>  (3) 
unknown

>  <Cp_T_units>  (3) 
unknown

>  <T_list>  (3) 
unknown

>  <T_units>  (3) 
unknown

>  <yaml_path>  (3) 
unknown

>  <frequencies_cm1>  (3) 
unknown

>  <ZPE_kJmol>  (3) 
unknown

>  <E_elec_kJmol>  (3) 
unknown

>  <E0_minus_Eelec_plus_ZPE_kJmol>  (3) 
unknown

>  <rxn>  (3) 
unknown

>  <species_type>  (3) 
unknown

>  <species_folder>  (3) 
unknown

>  <frequencies_cm1_list>  (3) 
[]

>  <ts_imag_freq_cm1>  (3) 
-1740.943

>  <ts_freq_out_path>  (3) 
/home/calvin/Dropbox/PersonalFolders/Calvin/HAb_Converged/rxn_1862/output/rxns/TS0/geometry/freq.out

>  <E0_kJmol>  (3) 
-2.49839e+06

>  <H298_kJmol>  (3) 
unknown

$$$$

     RDKit          3D

  5  4  0  0  0  0  0  0  0  0999 V2000
   -0.5642    0.0794    0.0348 C   0  0  0  0  0  3  0  0  0  1  0  0
    1.0624    0.5420    0.2853 S   0  0  0  0  0  0  0  0  0  2  0  0
   -1.3257    0.7631    0.3741 H   0  0  0  0  0  0  0  0  0  3  0  0
   -0.8236   -0.8519   -0.4401 H   0  0  0  0  0  0  0  0  0  4  0  0
    1.6511   -0.5325   -0.2540 H   0  0  0  0  0  0  0  0  0  5  0  0
  1  3  1  0
  1  2  1  0
  1  4  1  0
  2  5  1  0
M  RAD  1   1   2
M  END
>  <rmg_smiles>  (4) 
[CH2]S

>  <rmg_adjacency_list>  (4) 
multiplicity 2
1 S u0 p2 c0 {2,S} {5,S}
2 C u1 p0 c0 {1,S} {3,S} {4,S}
3 H u0 p0 c0 {2,S}
4 H u0 p0 c0 {2,S}
5 H u0 p0 c0 {1,S}


>  <multiplicity>  (4) 
2

>  <reaction>  (4) 
rxn_1862

>  <type>  (4) 
r1

>  <role_mapnums>  (4) 
{}

>  <role_mapidx>  (4) 
{}

>  <ordered_mapped_smiles>  (4) 
[C:1]([S:2][H:5])([H:3])[H:4]

>  <level_of_theory>  (4) 
wb97xd/def2tzvp

>  <lot_method>  (4) 
wb97xd

>  <lot_basis>  (4) 
def2tzvp

>  <spin_multiplicity>  (4) 
2.0

>  <optical_isomers>  (4) 
1.0

>  <modes>  (4) 
IdealGasTranslation(mass=(46.9956, 'amu')),         NonlinearRotor(             inertia = ([3.47508, 32.1188, 35.5939

>  <frequency_value>  (4) 
unknown

>  <frequency_units>  (4) 
unknown

>  <frequency_list>  (4) 
unknown

>  <arkane_path>  (4) 
/home/calvin/Dropbox/PersonalFolders/Calvin/HAb_Converged/rxn_1862/output/Species/rxn_1862_[CH2]S/arkane/output.py

>  <path_exists>  (4) 
True

>  <E0_value>  (4) 
-1150024.3332710424

>  <E0_units>  (4) 
kJ/mol

>  <thermo_class>  (4) 
NASA

>  <Cp0_value>  (4) 
33.257888

>  <Cp0_units>  (4) 
J/(mol*K)

>  <CpInf_value>  (4) 
108.088136

>  <CpInf_units>  (4) 
J/(mol*K)

>  <Tmin_value>  (4) 
10.0

>  <Tmin_units>  (4) 
K

>  <Tmax_value>  (4) 
3000.0

>  <Tmax_units>  (4) 
K

>  <polynomials>  (4) 
[{"name": "polynomial1", "class": "NASAPolynomial", "Tmin_value": 10.0, "Tmin_units": "K", "Tmax_value": 228.7632631011955, "Tmax_units": "K", "coeffs": [3.952412159768893, 0.004869189743453995, 7.700507410130638e-05, -3.7784535832034173e-07, 5.662383077803353e-10, -138315979.8249789, 6.828268654504248]}, {"name": "polynomial2", "class": "NASAPolynomial", "Tmin_value": 228.7632631011955, "Tmin_units": "K", "Tmax_value": 3000.0, "Tmax_units": "K", "coeffs": [4.0647189913044315, 0.010177206447780005, -5.480339108667681e-06, 1.4876276440090965e-09, -1.6083284592339647e-13, -138316003.99077362, 6.036236642771031]}]

>  <H298_value>  (4) 
-274859.2476351292

>  <H298_units>  (4) 
kcal/mol

>  <S298_value>  (4) 
63.58185598753384

>  <S298_units>  (4) 
cal/(mol*K)

>  <Cp_T_value_list>  (4) 
[13.241777557438835, 14.605646175289959, 15.816452446168032, 16.888481942792666, 18.669517607236212, 20.047696562682138, 22.269217674285446, 23.499652986162165, 24.148886967222168]

>  <Cp_T_units>  (4) 
cal/(mol*K)

>  <T_list>  (4) 
[300.0, 400.0, 500.0, 600.0, 800.0, 1000.0, 1500.0, 2000.0, 2400.0]

>  <T_units>  (4) 
K

>  <yaml_path>  (4) 
/home/calvin/Dropbox/PersonalFolders/Calvin/HAb_Converged/rxn_1862/output/Species/rxn_1862_[CH2]S/rxn_1862_CH2S.yml

>  <frequencies_cm1>  (4) 
[112.26147601135997, 339.84023650148, 784.39513214764, 853.62121115856, 1068.3930440268798, 1401.38689616432, 2708.6686255033596, 3159.5548816145597, 3285.6189981191196]

>  <ZPE_kJmol>  (4) 
82.02640747232539

>  <E_elec_kJmol>  (4) 
-1150106.3596785148

>  <E0_minus_Eelec_plus_ZPE_kJmol>  (4) 
0.0

>  <rxn>  (4) 
rxn_1862

>  <species_type>  (4) 
p1

>  <species_folder>  (4) 
rxn_1862_[CH2]S

>  <frequencies_cm1_list>  (4) 
[112.26147601135997, 339.84023650148, 784.39513214764, 853.62121115856, 1068.3930440268798, 1401.38689616432, 2708.6686255033596, 3159.5548816145597, 3285.6189981191196]

>  <E0_kJmol>  (4) 
-1.15002e+06

>  <H298_kJmol>  (4) 
-1.15001e+06

$$$$

     RDKit          3D

  5  4  0  0  0  0  0  0  0  0999 V2000
    2.6285   -0.7060   -0.0550 S   0  0  0  0  0  0  0  0  0  1  0  0
    1.1409   -0.3060    0.0719 C   0  0  0  0  0  3  0  0  0  2  0  0
   -0.1297    0.0350    0.1804 C   0  0  0  0  0  0  0  0  0  3  0  0
   -1.3079    0.3511    0.2810 C   0  0  0  0  0  0  0  0  0  4  0  0
   -2.3318    0.6259    0.3684 H   0  0  0  0  0  0  0  0  0  5  0  0
  1  2  1  0
  2  3  1  0
  3  4  1  0
  4  5  1  0
M  RAD  1   2   2
M  END
>  <rmg_smiles>  (5) 
[CH][C][C][S]

>  <rmg_adjacency_list>  (5) 
multiplicity 2
1 S u0 p2 c0 {3,S}
2 C u0 p1 c0 {3,S} {4,S}
3 C u1 p1 c0 {1,S} {2,S}
4 C u0 p1 c0 {2,S} {5,S}
5 H u0 p0 c0 {4,S}


>  <multiplicity>  (5) 
2

>  <reaction>  (5) 
rxn_1862

>  <type>  (5) 
r2

>  <role_mapnums>  (5) 
{}

>  <role_mapidx>  (5) 
{}

>  <ordered_mapped_smiles>  (5) 
[SH:1][CH:2][CH2:3][CH2:4][H:5]

>  <level_of_theory>  (5) 
wb97xd/def2tzvp

>  <lot_method>  (5) 
wb97xd

>  <lot_basis>  (5) 
def2tzvp

>  <spin_multiplicity>  (5) 
2.0

>  <optical_isomers>  (5) 
1.0

>  <modes>  (5) 
IdealGasTranslation(mass=(68.9799, 'amu')),         LinearRotor(inertia=(188.071, 'amu*angstrom^2'), symmetry=1),         HarmonicOscillator(             frequencies = ([93.2951, 167.303, 201.957, 376.405, 540.956, 717.211, 781.564, 1596.3, 2040.67, 3466.65

>  <frequency_value>  (5) 
unknown

>  <frequency_units>  (5) 
unknown

>  <frequency_list>  (5) 
unknown

>  <arkane_path>  (5) 
/home/calvin/Dropbox/PersonalFolders/Calvin/HAb_Converged/rxn_1862/output/Species/rxn_1862_S=[C]CtC/arkane/output.py

>  <path_exists>  (5) 
True

>  <E0_value>  (5) 
-1346748.5254284074

>  <E0_units>  (5) 
kJ/mol

>  <thermo_class>  (5) 
NASA

>  <Cp0_value>  (5) 
29.100652

>  <Cp0_units>  (5) 
J/(mol*K)

>  <CpInf_value>  (5) 
112.245372

>  <CpInf_units>  (5) 
J/(mol*K)

>  <Tmin_value>  (5) 
10.0

>  <Tmin_units>  (5) 
K

>  <Tmax_value>  (5) 
3000.0

>  <Tmax_units>  (5) 
K

>  <polynomials>  (5) 
[{"name": "polynomial1", "class": "NASAPolynomial", "Tmin_value": 10.0, "Tmin_units": "K", "Tmax_value": 769.0161169940679, "Tmax_units": "K", "coeffs": [3.1112273748203036, 0.02993660720906317, -5.225774080181531e-05, 4.766878543942188e-08, -1.697006354746202e-11, -161976427.02000618, 9.398009339328766]}, {"name": "polynomial2", "class": "NASAPolynomial", "Tmin_value": 769.0161169940679, "Tmin_units": "K", "Tmax_value": 3000.0, "Tmax_units": "K", "coeffs": [6.435894340817146, 0.009332299157511903, -5.609455252709457e-06, 1.6299102273336834e-09, -1.8304488190346954e-13, -161976840.45425048, -5.131790982648421]}]

>  <H298_value>  (5) 
-321876.8700061808

>  <H298_units>  (5) 
kcal/mol

>  <S298_value>  (5) 
67.78512787426412

>  <S298_units>  (5) 
cal/(mol*K)

>  <Cp_T_value_list>  (5) 
[16.96798638342031, 18.562496663604087, 19.69930718678338, 20.582575652351498, 22.000802658420863, 23.062730903652742, 24.61622455824954, 25.383056332154283, 25.797595197082252]

>  <Cp_T_units>  (5) 
cal/(mol*K)

>  <T_list>  (5) 
[300.0, 400.0, 500.0, 600.0, 800.0, 1000.0, 1500.0, 2000.0, 2400.0]

>  <T_units>  (5) 
K

>  <yaml_path>  (5) 
/home/calvin/Dropbox/PersonalFolders/Calvin/HAb_Converged/rxn_1862/output/Species/rxn_1862_S=[C]CtC/rxn_1862_S=CCtC.yml

>  <frequencies_cm1>  (5) 
[92.17554395036, 165.29520363772, 199.53399244323998, 371.8884569899199, 534.4643344409199, 708.6042151708001, 772.1856322486799, 1577.1405184443997, 2016.1812248786, 3425.0531350417195]

>  <ZPE_kJmol>  (5) 
58.991000252935365

>  <E_elec_kJmol>  (5) 
-1346807.5164286604

>  <E0_minus_Eelec_plus_ZPE_kJmol>  (5) 
0.0

>  <rxn>  (5) 
rxn_1862

>  <species_type>  (5) 
r0

>  <species_folder>  (5) 
rxn_1862_S=[C]CtC

>  <frequencies_cm1_list>  (5) 
[92.17554395036, 165.29520363772, 199.53399244323998, 371.8884569899199, 534.4643344409199, 708.6042151708001, 772.1856322486799, 1577.1405184443997, 2016.1812248786, 3425.0531350417195]

>  <E0_kJmol>  (5) 
-1.34675e+06

>  <H298_kJmol>  (5) 
-1.34673e+06

$$$$
