
     RDKit          3D

 10  9  0  0  0  0  0  0  0  0999 V2000
    0.3393   -0.4113   -1.8354 C   0  0  0  0  0  2  0  0  0  1  0  0
    0.0597   -0.3745   -0.6646 C   0  0  0  0  0  2  0  0  0  2  0  0
   -0.1935   -0.3471    0.7324 C   0  0  0  0  0  0  0  0  0  3  0  0
   -0.1959    0.9999    1.4157 C   0  0  0  0  0  0  0  0  0  4  0  0
    0.5580   -0.4399   -2.8756 H   0  0  0  0  0  0  0  0  0  5  0  0
    0.6774   -0.8527    1.1464 H   0  0  0  0  0  0  0  0  0  6  0  0
   -0.9856   -1.0267    1.0429 H   0  0  0  0  0  0  0  0  0  7  0  0
   -1.0121    1.6273    1.0482 H   0  0  0  0  0  0  0  0  0  8  0  0
   -0.3196    0.8817    2.4927 H   0  0  0  0  0  0  0  0  0  9  0  0
    0.7422    1.5248    1.2285 H   0  0  0  0  0  0  0  0  0 10  0  0
  1  5  1  0
  1  2  1  0
  2  3  1  0
  3  4  1  0
  3  6  1  0
  3  7  1  0
  4  8  1  0
  4  9  1  0
  4 10  1  0
M  RAD  2   1   3   2   3
M  END
>  <rmg_smiles>  (1) 
[CH][C]CC

>  <rmg_adjacency_list>  (1) 
1  C u0 p0 c0 {2,S} {3,S} {5,S} {6,S}
2  C u0 p0 c0 {1,S} {7,S} {8,S} {9,S}
3  C u0 p1 c0 {1,S} {4,S}
4  C u0 p1 c0 {3,S} {10,S}
5  H u0 p0 c0 {1,S}
6  H u0 p0 c0 {1,S}
7  H u0 p0 c0 {2,S}
8  H u0 p0 c0 {2,S}
9  H u0 p0 c0 {2,S}
10 H u0 p0 c0 {4,S}


>  <multiplicity>  (1) 
1

>  <reaction>  (1) 
rxn_1293

>  <type>  (1) 
r1h

>  <role_mapnums>  (1) 
{"r1h_a": 3, "r1h_h": 6}

>  <role_mapidx>  (1) 
{"r1h_a": 2, "r1h_h": 5}

>  <ordered_mapped_smiles>  (1) 
[C:1]([C:2][C:3]([C:4]([H:8])([H:9])[H:10])([H:6])[H:7])[H:5]

>  <mol_properties>  (1) 
{"2": {"label": "donator", "atom_type": "Cs"}, "5": {"label": "d_hydrogen", "atom_type": "H0"}}

>  <level_of_theory>  (1) 
wb97xd/def2tzvp

>  <lot_method>  (1) 
wb97xd

>  <lot_basis>  (1) 
def2tzvp

>  <spin_multiplicity>  (1) 
1.0

>  <optical_isomers>  (1) 
1.0

>  <modes>  (1) 
IdealGasTranslation(mass=(54.047, 'amu')),         NonlinearRotor(             inertia = ([18.311, 110.882, 122.965

>  <frequency_value>  (1) 
unknown

>  <frequency_units>  (1) 
unknown

>  <frequency_list>  (1) 
unknown

>  <arkane_path>  (1) 
/home/calvin/Dropbox/PersonalFolders/Calvin/HAb_Converged/rxn_1293/output/Species/rxn_1293_CtCCC/arkane/output.py

>  <path_exists>  (1) 
True

>  <E0_value>  (1) 
-409281.9068125439

>  <E0_units>  (1) 
kJ/mol

>  <thermo_class>  (1) 
NASA

>  <Cp0_value>  (1) 
33.257888

>  <Cp0_units>  (1) 
J/(mol*K)

>  <CpInf_value>  (1) 
232.805216

>  <CpInf_units>  (1) 
J/(mol*K)

>  <Tmin_value>  (1) 
10.0

>  <Tmin_units>  (1) 
K

>  <Tmax_value>  (1) 
3000.0

>  <Tmax_units>  (1) 
K

>  <polynomials>  (1) 
[{"name": "polynomial1", "class": "NASAPolynomial", "Tmin_value": 10.0, "Tmin_units": "K", "Tmax_value": 360.48121370424, "Tmax_units": "K", "coeffs": [3.964907651517416, 0.0024252181225602747, 0.00010970866124517926, -2.330425775882924e-07, 1.6483387684637681e-10, -49225243.05086936, 8.23900007534587]}, {"name": "polynomial2", "class": "NASAPolynomial", "Tmin_value": 360.48121370424, "Tmin_units": "K", "Tmax_value": 3000.0, "Tmax_units": "K", "coeffs": [1.173366775306642, 0.03340704549885685, -1.9235392341731885e-05, 5.470981511725664e-09, -6.120493514194064e-13, -49225041.83097189, 18.857768088551204]}]

>  <H298_value>  (1) 
-97816.99696801163

>  <H298_units>  (1) 
kcal/mol

>  <S298_value>  (1) 
68.93760489416931

>  <S298_units>  (1) 
cal/(mol*K)

>  <Cp_T_value_list>  (1) 
[19.095578790385176, 23.435119416919605, 27.251876378154844, 30.59356719880144, 36.04553968052718, 40.149424943692715, 46.44174128793762, 49.72179624324852, 51.42678973904542]

>  <Cp_T_units>  (1) 
cal/(mol*K)

>  <T_list>  (1) 
[300.0, 400.0, 500.0, 600.0, 800.0, 1000.0, 1500.0, 2000.0, 2400.0]

>  <T_units>  (1) 
K

>  <yaml_path>  (1) 
/home/calvin/Dropbox/PersonalFolders/Calvin/HAb_Converged/rxn_1293/output/Species/rxn_1293_CtCCC/rxn_1293_CtCCC.yml

>  <frequencies_cm1>  (1) 
[204.17607451956, 218.97442788415998, 366.0789874092, 525.48918462768, 681.08133800824, 687.0144133247201, 787.3273348792799, 847.3241856201199, 1026.4769656336, 1086.98884027344, 1103.26359548184, 1280.9125057102399, 1344.0544357276399, 1402.80149514024, 1466.62325670432, 1482.32805213116, 1490.70577422156, 2222.88434999592, 3023.4855674987602, 3025.88901236076, 3057.6625534364, 3103.54088235932, 3108.5949835548395, 3438.35448560656]

>  <ZPE_kJmol>  (1) 
221.20174166210896

>  <E_elec_kJmol>  (1) 
-409503.108554206

>  <E0_minus_Eelec_plus_ZPE_kJmol>  (1) 
0.0

>  <rxn>  (1) 
rxn_1293

>  <species_type>  (1) 
r0

>  <species_folder>  (1) 
rxn_1293_CtCCC

>  <frequencies_cm1_list>  (1) 
[204.17607451956, 218.97442788415998, 366.0789874092, 525.48918462768, 681.08133800824, 687.0144133247201, 787.3273348792799, 847.3241856201199, 1026.4769656336, 1086.98884027344, 1103.26359548184, 1280.9125057102399, 1344.0544357276399, 1402.80149514024, 1466.62325670432, 1482.32805213116, 1490.70577422156, 2222.88434999592, 3023.4855674987602, 3025.88901236076, 3057.6625534364, 3103.54088235932, 3108.5949835548395, 3438.35448560656]

>  <E0_kJmol>  (1) 
-409282

>  <H298_kJmol>  (1) 
-409266

$$$$

     RDKit          3D

 11 10  0  0  0  0  0  0  0  0999 V2000
   -1.3401    0.6080   -0.1819 H   0  0  0  0  0  0  0  0  0  1  0  0
   -0.5333    0.3485    1.7191 C   0  0  0  0  0  0  0  0  0  2  0  0
   -0.4325    0.1569    0.2192 C   0  0  0  0  0  0  0  0  0  3  0  0
   -0.4999   -1.1939   -0.2433 C   0  0  0  0  0  2  0  0  0  4  0  0
   -0.6229   -2.3135   -0.6607 C   0  0  0  0  0  2  0  0  0  5  0  0
    0.8885    1.1448   -0.4899 S   0  0  0  0  0  0  0  0  0  6  0  0
    0.3335   -0.0759    2.2307 H   0  0  0  0  0  0  0  0  0  7  0  0
   -0.5951    1.4097    1.9631 H   0  0  0  0  0  0  0  0  0  8  0  0
   -1.4264   -0.1514    2.0948 H   0  0  0  0  0  0  0  0  0  9  0  0
   -0.7155   -3.3077   -1.0262 H   0  0  0  0  0  0  0  0  0 10  0  0
    0.6208    0.8457   -1.7685 H   0  0  0  0  0  0  0  0  0 11  0  0
  1  3  1  0
  2  9  1  0
  2  8  1  0
  2  7  1  0
  2  3  1  0
  3  6  1  0
  3  4  1  0
  4  5  1  0
  5 10  1  0
  6 11  1  0
M  RAD  2   4   3   5   3
M  END
>  <rmg_smiles>  (2) 
[CH][C]C(S)C

>  <rmg_adjacency_list>  (2) 
1  S u0 p2 c0 {2,S} {10,S}
2  C u0 p0 c0 {1,S} {3,S} {4,S} {6,S}
3  C u0 p0 c0 {2,S} {7,S} {8,S} {9,S}
4  C u0 p1 c0 {2,S} {5,S}
5  C u0 p1 c0 {4,S} {11,S}
6  H u0 p0 c0 {2,S}
7  H u0 p0 c0 {3,S}
8  H u0 p0 c0 {3,S}
9  H u0 p0 c0 {3,S}
10 H u0 p0 c0 {1,S}
11 H u0 p0 c0 {5,S}


>  <multiplicity>  (2) 
1

>  <reaction>  (2) 
rxn_1293

>  <type>  (2) 
r2h

>  <role_mapnums>  (2) 
{"r2h_a": 3, "r2h_h": 1}

>  <role_mapidx>  (2) 
{"r2h_a": 2, "r2h_h": 0}

>  <ordered_mapped_smiles>  (2) 
[H:1][C:3]([C:2]([H:7])([H:8])[H:9])([C:4][C:5][H:10])[S:6][H:11]

>  <mol_properties>  (2) 
{"0": {"label": "a_hydrogen", "atom_type": "H0"}, "2": {"label": "acceptor", "atom_type": "Cs"}}

>  <level_of_theory>  (2) 
wb97xd/def2tzvp

>  <lot_method>  (2) 
wb97xd

>  <lot_basis>  (2) 
def2tzvp

>  <spin_multiplicity>  (2) 
1.0

>  <optical_isomers>  (2) 
2.0

>  <modes>  (2) 
IdealGasTranslation(mass=(86.019, 'amu')),         NonlinearRotor(             inertia = ([87.6457, 170.909, 240.546

>  <frequency_value>  (2) 
unknown

>  <frequency_units>  (2) 
unknown

>  <frequency_list>  (2) 
unknown

>  <arkane_path>  (2) 
/home/calvin/Dropbox/PersonalFolders/Calvin/HAb_Converged/rxn_1293/output/Species/rxn_1293_CC[CtC]S/arkane/output.py

>  <path_exists>  (2) 
True

>  <E0_value>  (2) 
-1454747.9869848297

>  <E0_units>  (2) 
kJ/mol

>  <thermo_class>  (2) 
NASA

>  <Cp0_value>  (2) 
33.257888

>  <Cp0_units>  (2) 
J/(mol*K)

>  <CpInf_value>  (2) 
257.748632

>  <CpInf_units>  (2) 
J/(mol*K)

>  <Tmin_value>  (2) 
10.0

>  <Tmin_units>  (2) 
K

>  <Tmax_value>  (2) 
3000.0

>  <Tmax_units>  (2) 
K

>  <polynomials>  (2) 
[{"name": "polynomial1", "class": "NASAPolynomial", "Tmin_value": 10.0, "Tmin_units": "K", "Tmax_value": 390.9140632823983, "Tmax_units": "K", "coeffs": [3.858713419231629, 0.010564997140702595, 0.00016329814740577924, -4.5849893030170754e-07, 3.9198883509043327e-10, -174965770.0665913, 10.944004943270295]}, {"name": "polynomial2", "class": "NASAPolynomial", "Tmin_value": 390.9140632823983, "Tmin_units": "K", "Tmax_value": 3000.0, "Tmax_units": "K", "coeffs": [3.5910622176950087, 0.03608103984670987, -2.2011240144551834e-05, 6.581334463032912e-09, -7.656686735052077e-13, -174965923.17532238, 9.75787740899601]}]

>  <H298_value>  (2) 
-347688.46609237033

>  <H298_units>  (2) 
kcal/mol

>  <S298_value>  (2) 
79.59735907954581

>  <S298_units>  (2) 
cal/(mol*K)

>  <Cp_T_value_list>  (2) 
[24.881185185807908, 29.6159028918133, 33.59091324770937, 37.0375095709953, 42.57535430939504, 46.65270848395564, 52.70695189298071, 55.8567148263336, 57.58553478406499]

>  <Cp_T_units>  (2) 
cal/(mol*K)

>  <T_list>  (2) 
[300.0, 400.0, 500.0, 600.0, 800.0, 1000.0, 1500.0, 2000.0, 2400.0]

>  <T_units>  (2) 
K

>  <yaml_path>  (2) 
/home/calvin/Dropbox/PersonalFolders/Calvin/HAb_Converged/rxn_1293/output/Species/rxn_1293_CC[CtC]S/rxn_1293_CCCtCS.yml

>  <frequencies_cm1>  (2) 
[163.65399414624, 200.12455318076, 233.74531330747996, 265.924006517, 317.85214950683996, 472.54472781047997, 536.37335635988, 646.5678697899199, 685.57234640752, 689.34918833352, 869.1543319524001, 892.7836284385199, 1026.9988565179199, 1098.10648950652, 1109.5743549909198, 1265.9630786685998, 1311.01736935312, 1401.32509329644, 1474.4310190131598, 1479.8628044012798, 2220.3023635156, 2695.0513936138, 3023.47870051344, 3043.8255780166, 3101.2679102183997, 3116.5263515994397, 3437.4068416324]

>  <ZPE_kJmol>  (2) 
219.98604213251892

>  <E_elec_kJmol>  (2) 
-1454967.9730269625

>  <E0_minus_Eelec_plus_ZPE_kJmol>  (2) 
0.0

>  <rxn>  (2) 
rxn_1293

>  <species_type>  (2) 
p0

>  <species_folder>  (2) 
rxn_1293_CC[CtC]S

>  <frequencies_cm1_list>  (2) 
[163.65399414624, 200.12455318076, 233.74531330747996, 265.924006517, 317.85214950683996, 472.54472781047997, 536.37335635988, 646.5678697899199, 685.57234640752, 689.34918833352, 869.1543319524001, 892.7836284385199, 1026.9988565179199, 1098.10648950652, 1109.5743549909198, 1265.9630786685998, 1311.01736935312, 1401.32509329644, 1474.4310190131598, 1479.8628044012798, 2220.3023635156, 2695.0513936138, 3023.47870051344, 3043.8255780166, 3101.2679102183997, 3116.5263515994397, 3437.4068416324]

>  <E0_kJmol>  (2) 
-1.45475e+06

>  <H298_kJmol>  (2) 
-1.45473e+06

$$$$

     RDKit          3D

 20 18  0  0  0  0  0  0  0  0999 V2000
   -1.1008    0.6179   -2.6870 C   0  0  0  0  0  0  0  0  0  1  0  0
   -1.3803    0.6548   -1.5162 C   0  0  0  0  0  0  0  0  0  2  0  0
   -1.6335    0.6822   -0.1192 C   0  0  0  0  0  3  0  0  0  3  0  0
   -1.6359    2.0292    0.5641 C   0  0  0  0  0  0  0  0  0  4  0  0
   -0.8821    0.5894   -3.7271 H   0  0  0  0  0  0  0  0  0  5  0  0
   -0.5365    0.0453    0.4024 H   0  0  0  0  0  0  0  0  0  6  0  0
   -2.4256    0.0025    0.1914 H   0  0  0  0  0  0  0  0  0  7  0  0
   -2.4521    2.6566    0.1966 H   0  0  0  0  0  0  0  0  0  8  0  0
   -1.7596    1.9110    1.6411 H   0  0  0  0  0  0  0  0  0  9  0  0
   -0.6978    2.5541    0.3769 H   0  0  0  0  0  0  0  0  0 10  0  0
    0.4652   -0.3110    2.3895 C   0  0  0  0  0  0  0  0  0 11  0  0
    0.5660   -0.5026    0.8895 C   0  0  0  0  0  0  0  0  0 12  0  0
    0.4986   -1.8534    0.4270 C   0  0  0  0  0  0  0  0  0 13  0  0
    0.3756   -2.9730    0.0097 C   0  0  0  0  0  0  0  0  0 14  0  0
    1.8870    0.4853    0.1805 S   0  0  0  0  0  0  0  0  0 15  0  0
    1.3319   -0.7355    2.9010 H   0  0  0  0  0  0  0  0  0 16  0  0
    0.4034    0.7502    2.6335 H   0  0  0  0  0  0  0  0  0 17  0  0
   -0.4279   -0.8109    2.7652 H   0  0  0  0  0  0  0  0  0 18  0  0
    0.2830   -3.9672   -0.3559 H   0  0  0  0  0  0  0  0  0 19  0  0
    1.6193    0.1862   -1.0981 H   0  0  0  0  0  0  0  0  0 20  0  0
  1  5  1  0
  1  2  1  0
  2  3  1  0
  3  4  1  0
  3  7  1  0
  4  8  1  0
  4  9  1  0
  4 10  1  0
  6 12  1  0
 11 16  1  0
 11 18  1  0
 11 17  1  0
 11 12  1  0
 12 13  1  0
 12 15  1  0
 13 14  1  0
 14 19  1  0
 15 20  1  0
M  RAD  1   3   2
M  END
>  <rmg_smiles>  (3) 
[CH][C]C(S)C.[CH][C][CH]C

>  <rmg_adjacency_list>  (3) 
multiplicity 2
1  S u0 p2 c0 {2,S} {18,S}
2  C u0 p0 c0 {1,S} {3,S} {6,S} {10,S}
3  C u0 p0 c0 {2,S} {11,S} {12,S} {13,S}
4  C u0 p0 c0 {5,S} {14,S} {15,S} {16,S}
5  C u1 p0 c0 {4,S} {7,S} {17,S}
6  C u0 p1 c0 {2,S} {8,S}
7  C u0 p1 c0 {5,S} {9,S}
8  C u0 p1 c0 {6,S} {20,S}
9  C u0 p1 c0 {7,S} {19,S}
10 H u0 p0 c0 {2,S}
11 H u0 p0 c0 {3,S}
12 H u0 p0 c0 {3,S}
13 H u0 p0 c0 {3,S}
14 H u0 p0 c0 {4,S}
15 H u0 p0 c0 {4,S}
16 H u0 p0 c0 {4,S}
17 H u0 p0 c0 {5,S}
18 H u0 p0 c0 {1,S}
19 H u0 p0 c0 {9,S}
20 H u0 p0 c0 {8,S}


>  <multiplicity>  (3) 
2

>  <reaction>  (3) 
rxn_1293

>  <type>  (3) 
ts

>  <role_mapnums>  (3) 
{"*2": 6, "*1": 3, "*3": 12, "*0": 15, "*4": 2}

>  <role_mapidx>  (3) 
{"*2": 5, "*1": 2, "*3": 11, "*0": 14, "*4": 1}

>  <ordered_mapped_smiles>  (3) 
[CH2:1]([CH2:2][C:3]([C:4]([H:8])([H:9])[H:10])[H:7])[H:5].[H:6][C:12]([C:11]([H:16])([H:17])[H:18])([CH2:13][CH2:14][H:19])[S:15][H:20]

>  <mol_properties>  (3) 
{"1": {"label": "*4", "atom_type": "C2s"}, "2": {"label": "*1", "atom_type": "Cs"}, "5": {"label": "*2", "atom_type": "H0"}, "11": {"label": "*3", "atom_type": "Cs"}, "14": {"label": "*0", "atom_type": "S2s"}}

>  <level_of_theory>  (3) 
wb97xd/def2tzvp

>  <lot_method>  (3) 
wb97xd

>  <lot_basis>  (3) 
def2tzvp

>  <spin_multiplicity>  (3) 
2.0

>  <optical_isomers>  (3) 
2.0

>  <modes>  (3) 
IdealGasTranslation(mass=(139.058, 'amu')),         NonlinearRotor(             inertia = ([355.798, 536.058, 601.713

>  <frequency_value>  (3) 
-1761.45

>  <frequency_units>  (3) 
cm^-1

>  <frequency_list>  (3) 
unknown

>  <arkane_path>  (3) 
/home/calvin/Dropbox/PersonalFolders/Calvin/HAb_Converged/rxn_1293/output/rxns/TS0/arkane/output.py

>  <path_exists>  (3) 
True

>  <E0_value>  (3) 
-1862310.0

>  <E0_units>  (3) 
kJ/mol

>  <thermo_class>  (3) 
unknown

>  <Cp0_value>  (3) 
unknown

>  <Cp0_units>  (3) 
unknown

>  <CpInf_value>  (3) 
unknown

>  <CpInf_units>  (3) 
unknown

>  <Tmin_value>  (3) 
unknown

>  <Tmin_units>  (3) 
unknown

>  <Tmax_value>  (3) 
unknown

>  <Tmax_units>  (3) 
unknown

>  <polynomials>  (3) 
unknown

>  <H298_value>  (3) 
unknown

>  <H298_units>  (3) 
unknown

>  <S298_value>  (3) 
unknown

>  <S298_units>  (3) 
unknown

>  <Cp_T_value_list>  (3) 
unknown

>  <Cp_T_units>  (3) 
unknown

>  <T_list>  (3) 
unknown

>  <T_units>  (3) 
unknown

>  <yaml_path>  (3) 
unknown

>  <frequencies_cm1>  (3) 
unknown

>  <ZPE_kJmol>  (3) 
unknown

>  <E_elec_kJmol>  (3) 
unknown

>  <E0_minus_Eelec_plus_ZPE_kJmol>  (3) 
unknown

>  <rxn>  (3) 
unknown

>  <species_type>  (3) 
unknown

>  <species_folder>  (3) 
unknown

>  <frequencies_cm1_list>  (3) 
[]

>  <ts_imag_freq_cm1>  (3) 
-1782.8439

>  <ts_freq_out_path>  (3) 
/home/calvin/Dropbox/PersonalFolders/Calvin/HAb_Converged/rxn_1293/output/rxns/TS0/geometry/freq.out

>  <E0_kJmol>  (3) 
-1.86231e+06

>  <H298_kJmol>  (3) 
unknown

$$$$

     RDKit          3D

  9  8  0  0  0  0  0  0  0  0999 V2000
    2.3038   -0.0269    0.1590 C   0  0  0  0  0  0  0  0  0  1  0  0
    1.1426    0.1377   -0.1648 C   0  0  0  0  0  0  0  0  0  2  0  0
   -0.1694    0.3175   -0.5203 C   0  0  0  0  0  3  0  0  0  3  0  0
   -1.3163   -0.1910    0.2856 C   0  0  0  0  0  0  0  0  0  4  0  0
    3.3199   -0.1683    0.4378 H   0  0  0  0  0  0  0  0  0  5  0  0
   -0.3786    0.8584   -1.4360 H   0  0  0  0  0  0  0  0  0  6  0  0
   -1.9694    0.6309    0.5951 H   0  0  0  0  0  0  0  0  0  7  0  0
   -1.9325   -0.8770   -0.3039 H   0  0  0  0  0  0  0  0  0  8  0  0
   -0.9753   -0.7144    1.1774 H   0  0  0  0  0  0  0  0  0  9  0  0
  1  5  1  0
  1  2  1  0
  2  3  1  0
  3  4  1  0
  3  6  1  0
  4  8  1  0
  4  9  1  0
  4  7  1  0
M  RAD  1   3   2
M  END
>  <rmg_smiles>  (4) 
[CH]C[CH]C

>  <rmg_adjacency_list>  (4) 
multiplicity 2
1 C u0 p0 c0 {2,S} {5,S} {6,S} {7,S}
2 C u1 p0 c0 {1,S} {3,S} {8,S}
3 C u0 p1 c0 {2,S} {4,S}
4 C u0 p1 c0 {3,S} {9,S}
5 H u0 p0 c0 {1,S}
6 H u0 p0 c0 {1,S}
7 H u0 p0 c0 {1,S}
8 H u0 p0 c0 {2,S}
9 H u0 p0 c0 {4,S}


>  <multiplicity>  (4) 
2

>  <reaction>  (4) 
rxn_1293

>  <type>  (4) 
r1

>  <role_mapnums>  (4) 
{}

>  <role_mapidx>  (4) 
{}

>  <ordered_mapped_smiles>  (4) 
[CH2:1]([CH2:2][C:3]([C:4]([H:7])([H:8])[H:9])[H:6])[H:5]

>  <level_of_theory>  (4) 
wb97xd/def2tzvp

>  <lot_method>  (4) 
wb97xd

>  <lot_basis>  (4) 
def2tzvp

>  <spin_multiplicity>  (4) 
2.0

>  <optical_isomers>  (4) 
1.0

>  <modes>  (4) 
IdealGasTranslation(mass=(53.0391, 'amu')),         NonlinearRotor(             inertia = ([13.0163, 113.224, 123.133

>  <frequency_value>  (4) 
unknown

>  <frequency_units>  (4) 
unknown

>  <frequency_list>  (4) 
unknown

>  <arkane_path>  (4) 
/home/calvin/Dropbox/PersonalFolders/Calvin/HAb_Converged/rxn_1293/output/Species/rxn_1293_CtC[CH]C/arkane/output.py

>  <path_exists>  (4) 
True

>  <E0_value>  (4) 
-407611.0180987149

>  <E0_units>  (4) 
kJ/mol

>  <thermo_class>  (4) 
NASA

>  <Cp0_value>  (4) 
33.257888

>  <Cp0_units>  (4) 
J/(mol*K)

>  <CpInf_value>  (4) 
207.8618

>  <CpInf_units>  (4) 
J/(mol*K)

>  <Tmin_value>  (4) 
10.0

>  <Tmin_units>  (4) 
K

>  <Tmax_value>  (4) 
3000.0

>  <Tmax_units>  (4) 
K

>  <polynomials>  (4) 
[{"name": "polynomial1", "class": "NASAPolynomial", "Tmin_value": 10.0, "Tmin_units": "K", "Tmax_value": 225.12244092476377, "Tmax_units": "K", "coeffs": [3.9266130103725434, 0.006751552972290672, 0.0001283541194316844, -4.2549688859148007e-07, 4.774737524189803e-10, -49024283.39050682, 9.03931398875942]}, {"name": "polynomial2", "class": "NASAPolynomial", "Tmin_value": 225.12244092476377, "Tmin_units": "K", "Tmax_value": 3000.0, "Tmax_units": "K", "coeffs": [2.698793800089887, 0.02856763785346583, -1.700774111948388e-05, 4.9718456847290095e-09, -5.66009400316375e-13, -49024228.10872656, 13.132014034873661]}]

>  <H298_value>  (4) 
-97417.42510508596

>  <H298_units>  (4) 
kcal/mol

>  <S298_value>  (4) 
72.15152284270778

>  <S298_units>  (4) 
cal/(mol*K)

>  <Cp_T_value_list>  (4) 
[19.609840418917145, 23.266846927668503, 26.46319689496793, 29.246023227567047, 33.746139284951916, 37.090269030960386, 42.123590532288944, 44.75530859912038, 46.19956450688901]

>  <Cp_T_units>  (4) 
cal/(mol*K)

>  <T_list>  (4) 
[300.0, 400.0, 500.0, 600.0, 800.0, 1000.0, 1500.0, 2000.0, 2400.0]

>  <T_units>  (4) 
K

>  <yaml_path>  (4) 
/home/calvin/Dropbox/PersonalFolders/Calvin/HAb_Converged/rxn_1293/output/Species/rxn_1293_CtC[CH]C/rxn_1293_CtCCHC.yml

>  <frequencies_cm1>  (4) 
[83.4682065646, 211.55121675324, 392.1460636839199, 478.7318815838, 554.46786267808, 595.8689171723599, 660.0408949877599, 865.1234115695598, 998.98842339764, 1092.3794237496397, 1143.49726247172, 1380.42198998236, 1394.47184194708, 1461.2464071987597, 1480.32289241772, 2005.2970531463998, 2994.3558157713196, 3043.5921005157197, 3109.55636149964, 3150.5453968747197, 3427.4497129183997]

>  <ZPE_kJmol>  (4) 
182.57126464434097

>  <E_elec_kJmol>  (4) 
-407793.5893633592

>  <E0_minus_Eelec_plus_ZPE_kJmol>  (4) 
0.0

>  <rxn>  (4) 
rxn_1293

>  <species_type>  (4) 
p1

>  <species_folder>  (4) 
rxn_1293_CtC[CH]C

>  <frequencies_cm1_list>  (4) 
[83.4682065646, 211.55121675324, 392.1460636839199, 478.7318815838, 554.46786267808, 595.8689171723599, 660.0408949877599, 865.1234115695598, 998.98842339764, 1092.3794237496397, 1143.49726247172, 1380.42198998236, 1394.47184194708, 1461.2464071987597, 1480.32289241772, 2005.2970531463998, 2994.3558157713196, 3043.5921005157197, 3109.55636149964, 3150.5453968747197, 3427.4497129183997]

>  <E0_kJmol>  (4) 
-407611

>  <H298_kJmol>  (4) 
-407595

$$$$

     RDKit          3D

 10  9  0  0  0  0  0  0  0  0999 V2000
   -1.2648    0.1959    0.8197 C   0  0  0  0  0  0  0  0  0  1  0  0
   -0.2805    0.0995   -0.3030 C   0  0  0  0  0  3  0  0  0  2  0  0
   -0.0444    1.1347   -1.1797 C   0  0  0  0  0  0  0  0  0  3  0  0
    0.1640    2.0467   -1.9525 C   0  0  0  0  0  0  0  0  0  4  0  0
    0.5686   -1.4168   -0.4488 S   0  0  0  0  0  0  0  0  0  5  0  0
   -2.0466   -0.5638    0.7258 H   0  0  0  0  0  0  0  0  0  6  0  0
   -0.7765    0.0454    1.7871 H   0  0  0  0  0  0  0  0  0  7  0  0
   -1.7371    1.1762    0.8222 H   0  0  0  0  0  0  0  0  0  8  0  0
    0.3433    2.8484   -2.6273 H   0  0  0  0  0  0  0  0  0  9  0  0
    1.3075   -1.0953   -1.5176 H   0  0  0  0  0  0  0  0  0 10  0  0
  1  8  1  0
  1  7  1  0
  1  6  1  0
  1  2  1  0
  2  5  1  0
  2  3  1  0
  3  4  1  0
  4  9  1  0
  5 10  1  0
M  RAD  1   2   2
M  END
>  <rmg_smiles>  (5) 
[CH][C][C](S)C

>  <rmg_adjacency_list>  (5) 
multiplicity 2
1  S u0 p2 c0 {3,S} {9,S}
2  C u0 p0 c0 {3,S} {6,S} {7,S} {8,S}
3  C u1 p0 c0 {1,S} {2,S} {4,S}
4  C u0 p1 c0 {3,S} {5,S}
5  C u0 p1 c0 {4,S} {10,S}
6  H u0 p0 c0 {2,S}
7  H u0 p0 c0 {2,S}
8  H u0 p0 c0 {2,S}
9  H u0 p0 c0 {1,S}
10 H u0 p0 c0 {5,S}


>  <multiplicity>  (5) 
2

>  <reaction>  (5) 
rxn_1293

>  <type>  (5) 
r2

>  <role_mapnums>  (5) 
{}

>  <role_mapidx>  (5) 
{}

>  <ordered_mapped_smiles>  (5) 
[C:1]([C:2]([CH2:3][CH2:4][H:9])[S:5][H:10])([H:6])([H:7])[H:8]

>  <level_of_theory>  (5) 
wb97xd/def2tzvp

>  <lot_method>  (5) 
wb97xd

>  <lot_basis>  (5) 
def2tzvp

>  <spin_multiplicity>  (5) 
2.0

>  <optical_isomers>  (5) 
1.0

>  <modes>  (5) 
IdealGasTranslation(mass=(85.0112, 'amu')),         NonlinearRotor(             inertia = ([82.4047, 167.495, 246.765

>  <frequency_value>  (5) 
unknown

>  <frequency_units>  (5) 
unknown

>  <frequency_list>  (5) 
unknown

>  <arkane_path>  (5) 
/home/calvin/Dropbox/PersonalFolders/Calvin/HAb_Converged/rxn_1293/output/Species/rxn_1293_C[C][CtC]S/arkane/output.py

>  <path_exists>  (5) 
True

>  <E0_value>  (5) 
-1453105.3612422314

>  <E0_units>  (5) 
kJ/mol

>  <thermo_class>  (5) 
NASA

>  <Cp0_value>  (5) 
33.257888

>  <Cp0_units>  (5) 
J/(mol*K)

>  <CpInf_value>  (5) 
232.805216

>  <CpInf_units>  (5) 
J/(mol*K)

>  <Tmin_value>  (5) 
10.0

>  <Tmin_units>  (5) 
K

>  <Tmax_value>  (5) 
3000.0

>  <Tmax_units>  (5) 
K

>  <polynomials>  (5) 
[{"name": "polynomial1", "class": "NASAPolynomial", "Tmin_value": 10.0, "Tmin_units": "K", "Tmax_value": 273.1683789679481, "Tmax_units": "K", "coeffs": [3.7753814811155935, 0.021657527899277617, 0.00015828869971507256, -7.276144873974002e-07, 9.437697922519883e-10, -174768209.8714672, 11.90943942573215]}, {"name": "polynomial2", "class": "NASAPolynomial", "Tmin_value": 273.1683789679481, "Tmin_units": "K", "Tmax_value": 3000.0, "Tmax_units": "K", "coeffs": [4.594318769947566, 0.03191679788121869, -2.0228805295381523e-05, 6.243366588572276e-09, -7.431112905857346e-13, -174768337.63240626, 7.5016838847910154]}]

>  <H298_value>  (5) 
-347295.5706324715

>  <H298_units>  (5) 
kcal/mol

>  <S298_value>  (5) 
84.1434158183064

>  <S298_units>  (5) 
cal/(mol*K)

>  <Cp_T_value_list>  (5) 
[24.862571181723663, 28.82439231648624, 32.25135350920243, 35.2019473835623, 39.890283084922174, 43.28645806188217, 48.21770771757209, 50.81256302732231, 52.32387398967946]

>  <Cp_T_units>  (5) 
cal/(mol*K)

>  <T_list>  (5) 
[300.0, 400.0, 500.0, 600.0, 800.0, 1000.0, 1500.0, 2000.0, 2400.0]

>  <T_units>  (5) 
K

>  <yaml_path>  (5) 
/home/calvin/Dropbox/PersonalFolders/Calvin/HAb_Converged/rxn_1293/output/Species/rxn_1293_C[C][CtC]S/rxn_1293_CCCtCS.yml

>  <frequencies_cm1>  (5) 
[28.99241202104, 167.81538725015997, 203.42757311967998, 241.77968613187997, 295.34217162787996, 453.06309045763993, 470.87605037772, 523.76557131236, 631.26822649696, 687.0968171485599, 897.5561832359199, 949.84827644772, 1016.29322640404, 1147.0200259408798, 1305.15983087516, 1398.8735795372, 1461.4936186702798, 1475.6670763707598, 2045.4963852096796, 2715.8240242068, 2997.8579782845195, 3050.7749671604397, 3117.61133528, 3430.2308419729998]

>  <ZPE_kJmol>  (5) 
183.7053917951971

>  <E_elec_kJmol>  (5) 
-1453289.0666340266

>  <E0_minus_Eelec_plus_ZPE_kJmol>  (5) 
0.0

>  <rxn>  (5) 
rxn_1293

>  <species_type>  (5) 
r1

>  <species_folder>  (5) 
rxn_1293_C[C][CtC]S

>  <frequencies_cm1_list>  (5) 
[28.99241202104, 167.81538725015997, 203.42757311967998, 241.77968613187997, 295.34217162787996, 453.06309045763993, 470.87605037772, 523.76557131236, 631.26822649696, 687.0968171485599, 897.5561832359199, 949.84827644772, 1016.29322640404, 1147.0200259408798, 1305.15983087516, 1398.8735795372, 1461.4936186702798, 1475.6670763707598, 2045.4963852096796, 2715.8240242068, 2997.8579782845195, 3050.7749671604397, 3117.61133528, 3430.2308419729998]

>  <E0_kJmol>  (5) 
-1.45311e+06

>  <H298_kJmol>  (5) 
-1.45308e+06

$$$$
