
     RDKit          3D

  6  5  0  0  0  0  0  0  0  0999 V2000
   -0.2606   -0.1251    1.1657 C   0  0  0  0  0  0  0  0  0  1  0  0
    0.0886    0.0406   -0.5716 S   0  0  0  0  0  0  0  0  0  2  0  0
   -0.2607    0.8530    1.6415 H   0  0  0  0  0  0  0  0  0  3  0  0
   -1.2699   -0.5129    1.2850 H   0  0  0  0  0  0  0  0  0  4  0  0
    0.4647   -0.7323    1.7026 H   0  0  0  0  0  0  0  0  0  5  0  0
    1.3594    0.4455   -0.4491 H   0  0  0  0  0  0  0  0  0  6  0  0
  1  5  1  0
  1  4  1  0
  1  3  1  0
  1  2  1  0
  2  6  1  0
M  END
>  <rmg_smiles>  (1) 
CS

>  <rmg_adjacency_list>  (1) 
1 S u0 p2 c0 {2,S} {6,S}
2 C u0 p0 c0 {1,S} {3,S} {4,S} {5,S}
3 H u0 p0 c0 {2,S}
4 H u0 p0 c0 {2,S}
5 H u0 p0 c0 {2,S}
6 H u0 p0 c0 {1,S}


>  <multiplicity>  (1) 
1

>  <reaction>  (1) 
rxn_1839

>  <type>  (1) 
r1h

>  <role_mapnums>  (1) 
{"r1h_a": 1, "r1h_h": 3}

>  <role_mapidx>  (1) 
{"r1h_a": 0, "r1h_h": 2}

>  <ordered_mapped_smiles>  (1) 
[C:1]([S:2][H:6])([H:3])([H:4])[H:5]

>  <mol_properties>  (1) 
{"0": {"label": "donator", "atom_type": "Cs"}, "2": {"label": "d_hydrogen", "atom_type": "H0"}}

>  <level_of_theory>  (1) 
wb97xd/def2tzvp

>  <lot_method>  (1) 
wb97xd

>  <lot_basis>  (1) 
def2tzvp

>  <spin_multiplicity>  (1) 
1.0

>  <optical_isomers>  (1) 
1.0

>  <modes>  (1) 
IdealGasTranslation(mass=(48.0034, 'amu')),         NonlinearRotor(             inertia = ([4.88218, 38.8439, 40.5133

>  <frequency_value>  (1) 
unknown

>  <frequency_units>  (1) 
unknown

>  <frequency_list>  (1) 
unknown

>  <arkane_path>  (1) 
/home/calvin/Dropbox/PersonalFolders/Calvin/HAb_Converged/rxn_1839/output/Species/rxn_1839_CS/arkane/output.py

>  <path_exists>  (1) 
True

>  <E0_value>  (1) 
-1151727.0074722518

>  <E0_units>  (1) 
kJ/mol

>  <thermo_class>  (1) 
NASA

>  <Cp0_value>  (1) 
33.257888

>  <Cp0_units>  (1) 
J/(mol*K)

>  <CpInf_value>  (1) 
133.031552

>  <CpInf_units>  (1) 
J/(mol*K)

>  <Tmin_value>  (1) 
10.0

>  <Tmin_units>  (1) 
K

>  <Tmax_value>  (1) 
3000.0

>  <Tmax_units>  (1) 
K

>  <polynomials>  (1) 
[{"name": "polynomial1", "class": "NASAPolynomial", "Tmin_value": 10.0, "Tmin_units": "K", "Tmax_value": 512.0046987811082, "Tmax_units": "K", "coeffs": [3.9928587497669135, 0.0002559754074249204, 3.857280640825913e-05, -5.9282603001709694e-08, 2.982147399711347e-11, -138520762.43019888, 6.388595841908656]}, {"name": "polynomial2", "class": "NASAPolynomial", "Tmin_value": 512.0046987811082, "Tmin_units": "K", "Tmax_value": 3000.0, "Tmax_units": "K", "coeffs": [1.9274442242810899, 0.01639190572497184, -8.700073442106705e-06, 2.2701656845537463e-09, -2.333640907578926e-13, -138520550.93016994, 14.970390653960273]}]

>  <H298_value>  (1) 
-275266.5007544268

>  <H298_units>  (1) 
kcal/mol

>  <S298_value>  (1) 
60.53254852214023

>  <S298_units>  (1) 
cal/(mol*K)

>  <Cp_T_value_list>  (1) 
[12.285164170505567, 14.379905317207566, 16.329998202821564, 18.065044527000737, 20.944482261362513, 23.163034177843237, 26.669386406809583, 28.493484761208425, 29.402518411604955]

>  <Cp_T_units>  (1) 
cal/(mol*K)

>  <T_list>  (1) 
[300.0, 400.0, 500.0, 600.0, 800.0, 1000.0, 1500.0, 2000.0, 2400.0]

>  <T_units>  (1) 
K

>  <yaml_path>  (1) 
/home/calvin/Dropbox/PersonalFolders/Calvin/HAb_Converged/rxn_1839/output/Species/rxn_1839_CS/rxn_1839_CS.yml

>  <frequencies_cm1>  (1) 
[239.23203457815995, 718.5407429288399, 797.72395065376, 969.0552343877599, 1092.82577779544, 1352.90597980512, 1462.0155095546, 1475.7082782826799, 2706.3887863771197, 3036.2032243114, 3126.3324066364, 3127.7195376710397]

>  <ZPE_kJmol>  (1) 
120.25255493508004

>  <E_elec_kJmol>  (1) 
-1151847.260027187

>  <E0_minus_Eelec_plus_ZPE_kJmol>  (1) 
0.0

>  <rxn>  (1) 
rxn_1839

>  <species_type>  (1) 
r0

>  <species_folder>  (1) 
rxn_1839_CS

>  <frequencies_cm1_list>  (1) 
[239.23203457815995, 718.5407429288399, 797.72395065376, 969.0552343877599, 1092.82577779544, 1352.90597980512, 1462.0155095546, 1475.7082782826799, 2706.3887863771197, 3036.2032243114, 3126.3324066364, 3127.7195376710397]

>  <E0_kJmol>  (1) 
-1.15173e+06

>  <H298_kJmol>  (1) 
-1.15172e+06

$$$$

     RDKit          3D

 12 12  0  0  0  0  0  0  0  0999 V2000
   -0.0178   -2.2829   -0.8640 H   0  0  0  0  0  0  0  0  0  1  0  0
   -0.0126   -1.2735   -0.4528 C   0  0  0  0  0  0  0  0  0  2  0  0
   -0.1226   -0.2513   -1.3675 C   0  0  0  0  0  0  0  0  0  3  0  0
   -0.1086    1.0576   -0.8958 C   0  0  0  0  0  0  0  0  0  4  0  0
    0.0132    1.3038    0.4649 C   0  0  0  0  0  0  0  0  0  5  0  0
    0.1216    0.2508    1.3629 C   0  0  0  0  0  0  0  0  0  6  0  0
    0.1089   -1.0620    0.9022 C   0  0  0  0  0  0  0  0  0  7  0  0
   -0.2177   -0.4619   -2.4268 H   0  0  0  0  0  0  0  0  0  8  0  0
   -0.1937    1.8838   -1.5913 H   0  0  0  0  0  0  0  0  0  9  0  0
    0.0235    2.3236    0.8284 H   0  0  0  0  0  0  0  0  0 10  0  0
    0.2161    0.4501    2.4236 H   0  0  0  0  0  0  0  0  0 11  0  0
    0.1929   -1.8896    1.5966 H   0  0  0  0  0  0  0  0  0 12  0  0
  1  2  1  0
  2  7  1  0
  2  3  1  0
  3  4  1  0
  3  8  1  0
  4  5  1  0
  4  9  1  0
  5  6  1  0
  5 10  1  0
  6  7  1  0
  6 11  1  0
  7 12  1  0
M  END
>  <rmg_smiles>  (2) 
[CH]1[CH][CH][CH][CH][CH]1

>  <rmg_adjacency_list>  (2) 
1  C u0 p0 c0 {2,S} {6,S} {7,S}
2  C u0 p0 c0 {1,S} {3,S} {8,S}
3  C u0 p0 c0 {2,S} {4,S} {9,S}
4  C u0 p0 c0 {3,S} {5,S} {10,S}
5  C u0 p0 c0 {4,S} {6,S} {11,S}
6  C u0 p0 c0 {1,S} {5,S} {12,S}
7  H u0 p0 c0 {1,S}
8  H u0 p0 c0 {2,S}
9  H u0 p0 c0 {3,S}
10 H u0 p0 c0 {4,S}
11 H u0 p0 c0 {5,S}
12 H u0 p0 c0 {6,S}


>  <multiplicity>  (2) 
1

>  <reaction>  (2) 
rxn_1839

>  <type>  (2) 
r2h

>  <role_mapnums>  (2) 
{"r2h_a": 2, "r2h_h": 1}

>  <role_mapidx>  (2) 
{"r2h_a": 1, "r2h_h": 0}

>  <ordered_mapped_smiles>  (2) 
[H:1][CH:2]1[CH:3]([H:8])[CH:4]([H:9])[CH:5]([H:10])[CH:6]([H:11])[CH:7]1[H:12]

>  <mol_properties>  (2) 
{"0": {"label": "a_hydrogen", "atom_type": "H0"}, "1": {"label": "acceptor", "atom_type": "Cs"}}

>  <level_of_theory>  (2) 
wb97xd/def2tzvp

>  <lot_method>  (2) 
wb97xd

>  <lot_basis>  (2) 
def2tzvp

>  <spin_multiplicity>  (2) 
1.0

>  <optical_isomers>  (2) 
1.0

>  <modes>  (2) 
IdealGasTranslation(mass=(78.0469, 'amu')),         NonlinearRotor(             inertia = ([87.7329, 87.7329, 175.465

>  <frequency_value>  (2) 
unknown

>  <frequency_units>  (2) 
unknown

>  <frequency_list>  (2) 
unknown

>  <arkane_path>  (2) 
/home/calvin/Dropbox/PersonalFolders/Calvin/HAb_Converged/rxn_1839/output/Species/rxn_1839_c1ccccc1/arkane/output.py

>  <path_exists>  (2) 
True

>  <E0_value>  (2) 
-609504.360370392

>  <E0_units>  (2) 
kJ/mol

>  <thermo_class>  (2) 
NASA

>  <Cp0_value>  (2) 
33.257888

>  <Cp0_units>  (2) 
J/(mol*K)

>  <CpInf_value>  (2) 
282.692048

>  <CpInf_units>  (2) 
J/(mol*K)

>  <Tmin_value>  (2) 
10.0

>  <Tmin_units>  (2) 
K

>  <Tmax_value>  (2) 
3000.0

>  <Tmax_units>  (2) 
K

>  <polynomials>  (2) 
[{"name": "polynomial1", "class": "NASAPolynomial", "Tmin_value": 10.0, "Tmin_units": "K", "Tmax_value": 624.592263586622, "Tmax_units": "K", "coeffs": [4.233168258053532, -0.019045525749694137, 0.00020733289574214212, -3.229069809315715e-07, 1.6291912332876307e-10, -73306442.69933616, 7.126695957154937]}, {"name": "polynomial2", "class": "NASAPolynomial", "Tmin_value": 624.592263586622, "Tmin_units": "K", "Tmax_value": 3000.0, "Tmax_units": "K", "coeffs": [-1.8698187272419042, 0.050228720875929805, -3.153624591495123e-05, 9.439495887577878e-09, -1.0810156458482927e-12, -73306269.19580704, 28.983618873639625]}]

>  <H298_value>  (2) 
-145671.69164689348

>  <H298_units>  (2) 
kcal/mol

>  <S298_value>  (2) 
64.08076207186494

>  <S298_units>  (2) 
cal/(mol*K)

>  <Cp_T_value_list>  (2) 
[19.436126678110945, 26.41574535371564, 32.51606760943964, 37.38353889791204, 44.752284810021976, 50.04011810550739, 57.434969988722415, 60.93243343986719, 62.90784632965772]

>  <Cp_T_units>  (2) 
cal/(mol*K)

>  <T_list>  (2) 
[300.0, 400.0, 500.0, 600.0, 800.0, 1000.0, 1500.0, 2000.0, 2400.0]

>  <T_units>  (2) 
K

>  <yaml_path>  (2) 
/home/calvin/Dropbox/PersonalFolders/Calvin/HAb_Converged/rxn_1839/output/Species/rxn_1839_c1ccccc1/rxn_1839_c1ccccc1.yml

>  <frequencies_cm1>  (2) 
[411.08520919648, 411.08520919648, 619.4913466731599, 619.4913466731599, 688.7723615666399, 717.7579066023599, 868.2066879782399, 868.2066879782399, 984.4304145192399, 984.4304145192399, 1003.7129092978, 1017.3782100845998, 1018.6966712660399, 1060.29000134928, 1060.29000134928, 1165.64329012872, 1194.6494361204, 1194.6494361204, 1323.1101305016398, 1373.28719223488, 1510.9015780476798, 1510.9015780476798, 1649.40867195208, 1649.40867195208, 3149.73509260696, 3159.4312758787996, 3159.4312758787996, 3175.33521387992, 3175.33521387992, 3185.60135693332]

>  <ZPE_kJmol>  (2) 
262.6411261645067

>  <E_elec_kJmol>  (2) 
-609767.0014965564

>  <E0_minus_Eelec_plus_ZPE_kJmol>  (2) 
0.0

>  <rxn>  (2) 
rxn_1839

>  <species_type>  (2) 
p0

>  <species_folder>  (2) 
rxn_1839_c1ccccc1

>  <frequencies_cm1_list>  (2) 
[411.08520919648, 411.08520919648, 619.4913466731599, 619.4913466731599, 688.7723615666399, 717.7579066023599, 868.2066879782399, 868.2066879782399, 984.4304145192399, 984.4304145192399, 1003.7129092978, 1017.3782100845998, 1018.6966712660399, 1060.29000134928, 1060.29000134928, 1165.64329012872, 1194.6494361204, 1194.6494361204, 1323.1101305016398, 1373.28719223488, 1510.9015780476798, 1510.9015780476798, 1649.40867195208, 1649.40867195208, 3149.73509260696, 3159.4312758787996, 3159.4312758787996, 3175.33521387992, 3175.33521387992, 3185.60135693332]

>  <E0_kJmol>  (2) 
-609504

>  <H298_kJmol>  (2) 
-609490

$$$$

     RDKit          3D

 17 16  0  0  0  0  0  0  0  0999 V2000
   -0.0574   -2.3325   -0.5159 C   0  0  0  0  0  0  0  0  0  1  0  0
    0.2918   -2.1668   -2.2532 S   0  0  0  0  0  0  0  0  0  2  0  0
   -0.0575   -1.2067    0.0317 H   0  0  0  0  0  0  0  0  0  3  0  0
   -1.0667   -2.7203   -0.3966 H   0  0  0  0  0  0  0  0  0  4  0  0
    0.6678   -2.9398    0.0210 H   0  0  0  0  0  0  0  0  0  5  0  0
    1.5625   -1.7619   -2.1307 H   0  0  0  0  0  0  0  0  0  6  0  0
   -0.0505    0.1283    0.5756 C   0  0  0  0  0  3  0  0  0  7  0  0
   -0.1605    1.1505   -0.3392 C   0  0  0  0  0  0  0  0  0  8  0  0
   -0.1466    2.4594    0.1326 C   0  0  0  0  0  0  0  0  0  9  0  0
   -0.0247    2.7056    1.4932 C   0  0  0  0  0  0  0  0  0 10  0  0
    0.0836    1.6526    2.3913 C   0  0  0  0  0  0  0  0  0 11  0  0
    0.0709    0.3398    1.9305 C   0  0  0  0  0  0  0  0  0 12  0  0
   -0.2557    0.9399   -1.3985 H   0  0  0  0  0  0  0  0  0 13  0  0
   -0.2316    3.2856   -0.5629 H   0  0  0  0  0  0  0  0  0 14  0  0
   -0.0145    3.7254    1.8567 H   0  0  0  0  0  0  0  0  0 15  0  0
    0.1781    1.8519    3.4520 H   0  0  0  0  0  0  0  0  0 16  0  0
    0.1550   -0.4878    2.6250 H   0  0  0  0  0  0  0  0  0 17  0  0
  1  5  1  0
  1  4  1  0
  1  3  1  0
  1  2  1  0
  2  6  1  0
  7 12  1  0
  7  8  1  0
  8  9  1  0
  8 13  1  0
  9 10  1  0
  9 14  1  0
 10 15  1  0
 10 11  1  0
 11 16  1  0
 11 12  1  0
 12 17  1  0
M  RAD  1   7   2
M  END
>  <rmg_smiles>  (3) 
[C]1[CH][CH][CH][CH][CH]1.CS

>  <rmg_adjacency_list>  (3) 
multiplicity 2
1  S u0 p2 c0 {2,S} {17,S}
2  C u0 p0 c0 {1,S} {9,S} {10,S} {11,S}
3  C u0 p0 c0 {4,S} {5,S} {13,S}
4  C u0 p0 c0 {3,S} {6,S} {12,S}
5  C u0 p0 c0 {3,S} {7,S} {14,S}
6  C u0 p0 c0 {4,S} {8,S} {15,S}
7  C u0 p0 c0 {5,S} {8,S} {16,S}
8  C u1 p1 c0 {6,S} {7,S}
9  H u0 p0 c0 {2,S}
10 H u0 p0 c0 {2,S}
11 H u0 p0 c0 {2,S}
12 H u0 p0 c0 {4,S}
13 H u0 p0 c0 {3,S}
14 H u0 p0 c0 {5,S}
15 H u0 p0 c0 {6,S}
16 H u0 p0 c0 {7,S}
17 H u0 p0 c0 {1,S}


>  <multiplicity>  (3) 
2

>  <reaction>  (3) 
rxn_1839

>  <type>  (3) 
ts

>  <role_mapnums>  (3) 
{"*2": 3, "*1": 1, "*3": 7, "*0": 2, "*4": 8}

>  <role_mapidx>  (3) 
{"*2": 2, "*1": 0, "*3": 6, "*0": 1, "*4": 7}

>  <ordered_mapped_smiles>  (3) 
[C:1]([S:2][H:6])([H:3])([H:4])[H:5].[CH:7]1[CH:8]([H:13])[CH:9]([H:14])[CH:10]([H:15])[CH:11]([H:16])[CH:12]1[H:17]

>  <mol_properties>  (3) 
{"0": {"label": "*1", "atom_type": "Cs"}, "1": {"label": "*0", "atom_type": "S2s"}, "2": {"label": "*2", "atom_type": "H0"}, "6": {"label": "*3", "atom_type": "C2s"}, "7": {"label": "*4", "atom_type": "Cs"}}

>  <level_of_theory>  (3) 
wb97xd/def2tzvp

>  <lot_method>  (3) 
wb97xd

>  <lot_basis>  (3) 
def2tzvp

>  <spin_multiplicity>  (3) 
2.0

>  <optical_isomers>  (3) 
2.0

>  <modes>  (3) 
IdealGasTranslation(mass=(125.043, 'amu')),         NonlinearRotor(             inertia = ([118.223, 711.691, 818.295

>  <frequency_value>  (3) 
-1478.88

>  <frequency_units>  (3) 
cm^-1

>  <frequency_list>  (3) 
unknown

>  <arkane_path>  (3) 
/home/calvin/Dropbox/PersonalFolders/Calvin/HAb_Converged/rxn_1839/output/rxns/TS0/arkane/output.py

>  <path_exists>  (3) 
True

>  <E0_value>  (3) 
-1759440.0

>  <E0_units>  (3) 
kJ/mol

>  <thermo_class>  (3) 
unknown

>  <Cp0_value>  (3) 
unknown

>  <Cp0_units>  (3) 
unknown

>  <CpInf_value>  (3) 
unknown

>  <CpInf_units>  (3) 
unknown

>  <Tmin_value>  (3) 
unknown

>  <Tmin_units>  (3) 
unknown

>  <Tmax_value>  (3) 
unknown

>  <Tmax_units>  (3) 
unknown

>  <polynomials>  (3) 
unknown

>  <H298_value>  (3) 
unknown

>  <H298_units>  (3) 
unknown

>  <S298_value>  (3) 
unknown

>  <S298_units>  (3) 
unknown

>  <Cp_T_value_list>  (3) 
unknown

>  <Cp_T_units>  (3) 
unknown

>  <T_list>  (3) 
unknown

>  <T_units>  (3) 
unknown

>  <yaml_path>  (3) 
unknown

>  <frequencies_cm1>  (3) 
unknown

>  <ZPE_kJmol>  (3) 
unknown

>  <E_elec_kJmol>  (3) 
unknown

>  <E0_minus_Eelec_plus_ZPE_kJmol>  (3) 
unknown

>  <rxn>  (3) 
unknown

>  <species_type>  (3) 
unknown

>  <species_folder>  (3) 
unknown

>  <frequencies_cm1_list>  (3) 
[]

>  <ts_imag_freq_cm1>  (3) 
-1496.8439

>  <ts_freq_out_path>  (3) 
/home/calvin/Dropbox/PersonalFolders/Calvin/HAb_Converged/rxn_1839/output/rxns/TS0/geometry/freq.out

>  <E0_kJmol>  (3) 
-1.75944e+06

>  <H298_kJmol>  (3) 
unknown

$$$$

     RDKit          3D

  5  4  0  0  0  0  0  0  0  0999 V2000
   -0.5642    0.0794    0.0348 C   0  0  0  0  0  3  0  0  0  1  0  0
    1.0624    0.5420    0.2853 S   0  0  0  0  0  0  0  0  0  2  0  0
   -1.3257    0.7631    0.3741 H   0  0  0  0  0  0  0  0  0  3  0  0
   -0.8236   -0.8519   -0.4401 H   0  0  0  0  0  0  0  0  0  4  0  0
    1.6511   -0.5325   -0.2540 H   0  0  0  0  0  0  0  0  0  5  0  0
  1  3  1  0
  1  2  1  0
  1  4  1  0
  2  5  1  0
M  RAD  1   1   2
M  END
>  <rmg_smiles>  (4) 
[CH2]S

>  <rmg_adjacency_list>  (4) 
multiplicity 2
1 S u0 p2 c0 {2,S} {5,S}
2 C u1 p0 c0 {1,S} {3,S} {4,S}
3 H u0 p0 c0 {2,S}
4 H u0 p0 c0 {2,S}
5 H u0 p0 c0 {1,S}


>  <multiplicity>  (4) 
2

>  <reaction>  (4) 
rxn_1839

>  <type>  (4) 
r1

>  <role_mapnums>  (4) 
{}

>  <role_mapidx>  (4) 
{}

>  <ordered_mapped_smiles>  (4) 
[C:1]([S:2][H:5])([H:3])[H:4]

>  <level_of_theory>  (4) 
wb97xd/def2tzvp

>  <lot_method>  (4) 
wb97xd

>  <lot_basis>  (4) 
def2tzvp

>  <spin_multiplicity>  (4) 
2.0

>  <optical_isomers>  (4) 
1.0

>  <modes>  (4) 
IdealGasTranslation(mass=(46.9956, 'amu')),         NonlinearRotor(             inertia = ([3.47508, 32.1188, 35.5939

>  <frequency_value>  (4) 
unknown

>  <frequency_units>  (4) 
unknown

>  <frequency_list>  (4) 
unknown

>  <arkane_path>  (4) 
/home/calvin/Dropbox/PersonalFolders/Calvin/HAb_Converged/rxn_1839/output/Species/rxn_1839_[CH2]S/arkane/output.py

>  <path_exists>  (4) 
True

>  <E0_value>  (4) 
-1150024.3332710424

>  <E0_units>  (4) 
kJ/mol

>  <thermo_class>  (4) 
NASA

>  <Cp0_value>  (4) 
33.257888

>  <Cp0_units>  (4) 
J/(mol*K)

>  <CpInf_value>  (4) 
108.088136

>  <CpInf_units>  (4) 
J/(mol*K)

>  <Tmin_value>  (4) 
10.0

>  <Tmin_units>  (4) 
K

>  <Tmax_value>  (4) 
3000.0

>  <Tmax_units>  (4) 
K

>  <polynomials>  (4) 
[{"name": "polynomial1", "class": "NASAPolynomial", "Tmin_value": 10.0, "Tmin_units": "K", "Tmax_value": 228.7632631011955, "Tmax_units": "K", "coeffs": [3.952412159768893, 0.004869189743453995, 7.700507410130638e-05, -3.7784535832034173e-07, 5.662383077803353e-10, -138315979.8249789, 6.828268654504248]}, {"name": "polynomial2", "class": "NASAPolynomial", "Tmin_value": 228.7632631011955, "Tmin_units": "K", "Tmax_value": 3000.0, "Tmax_units": "K", "coeffs": [4.0647189913044315, 0.010177206447780005, -5.480339108667681e-06, 1.4876276440090965e-09, -1.6083284592339647e-13, -138316003.99077362, 6.036236642771031]}]

>  <H298_value>  (4) 
-274859.2476351292

>  <H298_units>  (4) 
kcal/mol

>  <S298_value>  (4) 
63.58185598753384

>  <S298_units>  (4) 
cal/(mol*K)

>  <Cp_T_value_list>  (4) 
[13.241777557438835, 14.605646175289959, 15.816452446168032, 16.888481942792666, 18.669517607236212, 20.047696562682138, 22.269217674285446, 23.499652986162165, 24.148886967222168]

>  <Cp_T_units>  (4) 
cal/(mol*K)

>  <T_list>  (4) 
[300.0, 400.0, 500.0, 600.0, 800.0, 1000.0, 1500.0, 2000.0, 2400.0]

>  <T_units>  (4) 
K

>  <yaml_path>  (4) 
/home/calvin/Dropbox/PersonalFolders/Calvin/HAb_Converged/rxn_1839/output/Species/rxn_1839_[CH2]S/rxn_1839_CH2S.yml

>  <frequencies_cm1>  (4) 
[112.26147601135997, 339.84023650148, 784.39513214764, 853.62121115856, 1068.3930440268798, 1401.38689616432, 2708.6686255033596, 3159.5548816145597, 3285.6189981191196]

>  <ZPE_kJmol>  (4) 
82.02640747232539

>  <E_elec_kJmol>  (4) 
-1150106.3596785148

>  <E0_minus_Eelec_plus_ZPE_kJmol>  (4) 
0.0

>  <rxn>  (4) 
rxn_1839

>  <species_type>  (4) 
p1

>  <species_folder>  (4) 
rxn_1839_[CH2]S

>  <frequencies_cm1_list>  (4) 
[112.26147601135997, 339.84023650148, 784.39513214764, 853.62121115856, 1068.3930440268798, 1401.38689616432, 2708.6686255033596, 3159.5548816145597, 3285.6189981191196]

>  <E0_kJmol>  (4) 
-1.15002e+06

>  <H298_kJmol>  (4) 
-1.15001e+06

$$$$

     RDKit          3D

 11 11  0  0  0  0  0  0  0  0999 V2000
    0.1524   -1.5397    0.0698 C   0  0  0  0  0  3  0  0  0  1  0  0
   -1.1218   -1.0406    0.0516 C   0  0  0  0  0  0  0  0  0  2  0  0
   -1.2464    0.3470   -0.0114 C   0  0  0  0  0  0  0  0  0  3  0  0
   -0.1137    1.1487   -0.0521 C   0  0  0  0  0  0  0  0  0  4  0  0
    1.1542    0.5837   -0.0308 C   0  0  0  0  0  0  0  0  0  5  0  0
    1.3041   -0.8014    0.0319 C   0  0  0  0  0  0  0  0  0  6  0  0
   -1.9955   -1.6793    0.0840 H   0  0  0  0  0  0  0  0  0  7  0  0
   -2.2319    0.7966   -0.0284 H   0  0  0  0  0  0  0  0  0  8  0  0
   -0.2203    2.2248   -0.1009 H   0  0  0  0  0  0  0  0  0  9  0  0
    2.0325    1.2173   -0.0630 H   0  0  0  0  0  0  0  0  0 10  0  0
    2.2862   -1.2570    0.0492 H   0  0  0  0  0  0  0  0  0 11  0  0
  1  6  1  0
  1  2  1  0
  2  7  1  0
  2  3  1  0
  3  4  1  0
  3  8  1  0
  4  5  1  0
  4  9  1  0
  5  6  1  0
  5 10  1  0
  6 11  1  0
M  RAD  1   1   2
M  END
>  <rmg_smiles>  (5) 
[C]1[CH][CH][CH][CH][CH]1

>  <rmg_adjacency_list>  (5) 
multiplicity 2
1  C u0 p0 c0 {2,S} {3,S} {8,S}
2  C u0 p0 c0 {1,S} {4,S} {7,S}
3  C u0 p0 c0 {1,S} {5,S} {9,S}
4  C u0 p0 c0 {2,S} {6,S} {10,S}
5  C u0 p0 c0 {3,S} {6,S} {11,S}
6  C u1 p1 c0 {4,S} {5,S}
7  H u0 p0 c0 {2,S}
8  H u0 p0 c0 {1,S}
9  H u0 p0 c0 {3,S}
10 H u0 p0 c0 {4,S}
11 H u0 p0 c0 {5,S}


>  <multiplicity>  (5) 
2

>  <reaction>  (5) 
rxn_1839

>  <type>  (5) 
r2

>  <role_mapnums>  (5) 
{}

>  <role_mapidx>  (5) 
{}

>  <ordered_mapped_smiles>  (5) 
[CH:1]1[CH:2]([H:7])[CH:3]([H:8])[CH:4]([H:9])[CH:5]([H:10])[CH:6]1[H:11]

>  <level_of_theory>  (5) 
wb97xd/def2tzvp

>  <lot_method>  (5) 
wb97xd

>  <lot_basis>  (5) 
def2tzvp

>  <spin_multiplicity>  (5) 
2.0

>  <optical_isomers>  (5) 
1.0

>  <modes>  (5) 
IdealGasTranslation(mass=(77.0391, 'amu')),         NonlinearRotor(             inertia = ([79.4834, 89.154, 168.637

>  <frequency_value>  (5) 
unknown

>  <frequency_units>  (5) 
unknown

>  <frequency_list>  (5) 
unknown

>  <arkane_path>  (5) 
/home/calvin/Dropbox/PersonalFolders/Calvin/HAb_Converged/rxn_1839/output/Species/rxn_1839_[c]1ccccc1/arkane/output.py

>  <path_exists>  (5) 
True

>  <E0_value>  (5) 
-607724.3998530591

>  <E0_units>  (5) 
kJ/mol

>  <thermo_class>  (5) 
NASA

>  <Cp0_value>  (5) 
33.257888

>  <Cp0_units>  (5) 
J/(mol*K)

>  <CpInf_value>  (5) 
257.748632

>  <CpInf_units>  (5) 
J/(mol*K)

>  <Tmin_value>  (5) 
10.0

>  <Tmin_units>  (5) 
K

>  <Tmax_value>  (5) 
3000.0

>  <Tmax_units>  (5) 
K

>  <polynomials>  (5) 
[{"name": "polynomial1", "class": "NASAPolynomial", "Tmin_value": 10.0, "Tmin_units": "K", "Tmax_value": 611.9514440069146, "Tmax_units": "K", "coeffs": [4.21092824796689, -0.0177158055371586, 0.00019979619343695558, -3.2072542312861555e-07, 1.663400132916073e-10, -73092362.08808899, 9.541913883825746]}, {"name": "polynomial2", "class": "NASAPolynomial", "Tmin_value": 611.9514440069146, "Tmin_units": "K", "Tmax_value": 3000.0, "Tmax_units": "K", "coeffs": [-0.9065651052715874, 0.045726326043511574, -2.922673270471325e-05, 8.862920022768984e-09, -1.0248092407500463e-12, -73092297.33007778, 27.12926551119779]}]

>  <H298_value>  (5) 
-145246.28547837675

>  <H298_units>  (5) 
kcal/mol

>  <S298_value>  (5) 
68.80259293434003

>  <S298_units>  (5) 
cal/(mol*K)

>  <Cp_T_value_list>  (5) 
[19.0088457147948, 25.48368626323164, 31.015617142413397, 35.350513599609414, 41.905097827045225, 46.56251177649668, 52.95315854009716, 55.93105668249137, 57.650713362445174]

>  <Cp_T_units>  (5) 
cal/(mol*K)

>  <T_list>  (5) 
[300.0, 400.0, 500.0, 600.0, 800.0, 1000.0, 1500.0, 2000.0, 2400.0]

>  <T_units>  (5) 
K

>  <yaml_path>  (5) 
/home/calvin/Dropbox/PersonalFolders/Calvin/HAb_Converged/rxn_1839/output/Species/rxn_1839_[c]1ccccc1/rxn_1839_c1ccccc1.yml

>  <frequencies_cm1>  (5) 
[400.5512537155999, 426.67326587288, 597.8672099004799, 615.68016982056, 676.79633916856, 724.72789670216, 824.4571245045198, 899.6574807438399, 971.9119002808799, 984.9523054035599, 991.6407491052399, 1020.6812300235198, 1047.53114262472, 1072.8977863968, 1169.36519617216, 1172.49654147808, 1297.26966474248, 1311.9787472979199, 1460.7382502850799, 1471.6292890026, 1588.58778297284, 1641.45670295152, 3150.80634231688, 3156.9248262369997, 3168.1111453232797, 3171.7231796016, 3181.6597073596404]

>  <ZPE_kJmol>  (5) 
228.47946828382223

>  <E_elec_kJmol>  (5) 
-607952.8793213429

>  <E0_minus_Eelec_plus_ZPE_kJmol>  (5) 
0.0

>  <rxn>  (5) 
rxn_1839

>  <species_type>  (5) 
r1

>  <species_folder>  (5) 
rxn_1839_[c]1ccccc1

>  <frequencies_cm1_list>  (5) 
[400.5512537155999, 426.67326587288, 597.8672099004799, 615.68016982056, 676.79633916856, 724.72789670216, 824.4571245045198, 899.6574807438399, 971.9119002808799, 984.9523054035599, 991.6407491052399, 1020.6812300235198, 1047.53114262472, 1072.8977863968, 1169.36519617216, 1172.49654147808, 1297.26966474248, 1311.9787472979199, 1460.7382502850799, 1471.6292890026, 1588.58778297284, 1641.45670295152, 3150.80634231688, 3156.9248262369997, 3168.1111453232797, 3171.7231796016, 3181.6597073596404]

>  <E0_kJmol>  (5) 
-607724

>  <H298_kJmol>  (5) 
-607710

$$$$
