
     RDKit          3D

  6  5  0  0  0  0  0  0  0  0999 V2000
   -0.5673   -0.3584    0.9713 C   0  0  0  0  0  0  0  0  0  1  0  0
    0.2429    0.1460   -0.4979 S   0  0  0  0  0  0  0  0  0  2  0  0
   -0.7356    0.5393    1.5581 H   0  0  0  0  0  0  0  0  0  3  0  0
   -1.5699   -0.7196    0.7648 H   0  0  0  0  0  0  0  0  0  4  0  0
    0.0065   -0.9909    1.6417 H   0  0  0  0  0  0  0  0  0  5  0  0
    1.4069    0.4988    0.0646 H   0  0  0  0  0  0  0  0  0  6  0  0
  1  5  1  0
  1  4  1  0
  1  3  1  0
  1  2  1  0
  2  6  1  0
M  END
>  <rmg_smiles>  (1) 
CS

>  <rmg_adjacency_list>  (1) 
1 S u0 p2 c0 {2,S} {6,S}
2 C u0 p0 c0 {1,S} {3,S} {4,S} {5,S}
3 H u0 p0 c0 {2,S}
4 H u0 p0 c0 {2,S}
5 H u0 p0 c0 {2,S}
6 H u0 p0 c0 {1,S}


>  <multiplicity>  (1) 
1

>  <reaction>  (1) 
rxn_1813

>  <type>  (1) 
r1h

>  <role_mapnums>  (1) 
{"r1h_a": 1, "r1h_h": 3}

>  <role_mapidx>  (1) 
{"r1h_a": 0, "r1h_h": 2}

>  <ordered_mapped_smiles>  (1) 
[C:1]([S:2][H:6])([H:3])([H:4])[H:5]

>  <mol_properties>  (1) 
{"0": {"label": "donator", "atom_type": "Cs"}, "2": {"label": "d_hydrogen", "atom_type": "H0"}}

>  <level_of_theory>  (1) 
wb97xd/def2tzvp

>  <lot_method>  (1) 
wb97xd

>  <lot_basis>  (1) 
def2tzvp

>  <spin_multiplicity>  (1) 
1.0

>  <optical_isomers>  (1) 
1.0

>  <modes>  (1) 
IdealGasTranslation(mass=(48.0034, 'amu')),         NonlinearRotor(             inertia = ([4.88218, 38.8439, 40.5133

>  <frequency_value>  (1) 
unknown

>  <frequency_units>  (1) 
unknown

>  <frequency_list>  (1) 
unknown

>  <arkane_path>  (1) 
/home/calvin/Dropbox/PersonalFolders/Calvin/HAb_Converged/rxn_1813/output/Species/rxn_1813_CS/arkane/output.py

>  <path_exists>  (1) 
True

>  <E0_value>  (1) 
-1151727.0074722518

>  <E0_units>  (1) 
kJ/mol

>  <thermo_class>  (1) 
NASA

>  <Cp0_value>  (1) 
33.257888

>  <Cp0_units>  (1) 
J/(mol*K)

>  <CpInf_value>  (1) 
133.031552

>  <CpInf_units>  (1) 
J/(mol*K)

>  <Tmin_value>  (1) 
10.0

>  <Tmin_units>  (1) 
K

>  <Tmax_value>  (1) 
3000.0

>  <Tmax_units>  (1) 
K

>  <polynomials>  (1) 
[{"name": "polynomial1", "class": "NASAPolynomial", "Tmin_value": 10.0, "Tmin_units": "K", "Tmax_value": 512.0046987811082, "Tmax_units": "K", "coeffs": [3.9928587497669135, 0.0002559754074249204, 3.857280640825913e-05, -5.9282603001709694e-08, 2.982147399711347e-11, -138520762.43019888, 6.388595841908656]}, {"name": "polynomial2", "class": "NASAPolynomial", "Tmin_value": 512.0046987811082, "Tmin_units": "K", "Tmax_value": 3000.0, "Tmax_units": "K", "coeffs": [1.9274442242810899, 0.01639190572497184, -8.700073442106705e-06, 2.2701656845537463e-09, -2.333640907578926e-13, -138520550.93016994, 14.970390653960273]}]

>  <H298_value>  (1) 
-275266.5007544268

>  <H298_units>  (1) 
kcal/mol

>  <S298_value>  (1) 
60.53254852214023

>  <S298_units>  (1) 
cal/(mol*K)

>  <Cp_T_value_list>  (1) 
[12.285164170505567, 14.379905317207566, 16.329998202821564, 18.065044527000737, 20.944482261362513, 23.163034177843237, 26.669386406809583, 28.493484761208425, 29.402518411604955]

>  <Cp_T_units>  (1) 
cal/(mol*K)

>  <T_list>  (1) 
[300.0, 400.0, 500.0, 600.0, 800.0, 1000.0, 1500.0, 2000.0, 2400.0]

>  <T_units>  (1) 
K

>  <yaml_path>  (1) 
/home/calvin/Dropbox/PersonalFolders/Calvin/HAb_Converged/rxn_1813/output/Species/rxn_1813_CS/rxn_1813_CS.yml

>  <frequencies_cm1>  (1) 
[239.23203457815995, 718.5407429288399, 797.72395065376, 969.0552343877599, 1092.82577779544, 1352.90597980512, 1462.0155095546, 1475.7082782826799, 2706.3887863771197, 3036.2032243114, 3126.3324066364, 3127.7195376710397]

>  <ZPE_kJmol>  (1) 
120.25255493508004

>  <E_elec_kJmol>  (1) 
-1151847.260027187

>  <E0_minus_Eelec_plus_ZPE_kJmol>  (1) 
0.0

>  <rxn>  (1) 
rxn_1813

>  <species_type>  (1) 
r0

>  <species_folder>  (1) 
rxn_1813_CS

>  <frequencies_cm1_list>  (1) 
[239.23203457815995, 718.5407429288399, 797.72395065376, 969.0552343877599, 1092.82577779544, 1352.90597980512, 1462.0155095546, 1475.7082782826799, 2706.3887863771197, 3036.2032243114, 3126.3324066364, 3127.7195376710397]

>  <E0_kJmol>  (1) 
-1.15173e+06

>  <H298_kJmol>  (1) 
-1.15172e+06

$$$$

     RDKit          3D

 13 12  0  0  0  0  0  0  0  0999 V2000
   -0.0797   -1.6505   -0.1179 H   0  0  0  0  0  0  0  0  0  1  0  0
   -2.1915    0.4301   -0.5285 C   0  0  0  0  0  0  0  0  0  2  0  0
   -0.8935    0.1509   -0.5985 C   0  0  0  0  0  0  0  0  0  3  0  0
   -0.1674   -0.6803    0.3728 C   0  0  0  0  0  0  0  0  0  4  0  0
    1.2328   -0.3598    0.7048 C   0  0  0  0  0  0  0  0  0  5  0  0
    2.0387    0.4882    0.0694 C   0  0  0  0  0  0  0  0  0  6  0  0
   -2.6859    1.0121   -1.2954 H   0  0  0  0  0  0  0  0  0  7  0  0
   -2.8003    0.0906    0.3027 H   0  0  0  0  0  0  0  0  0  8  0  0
   -0.3290    0.5058   -1.4552 H   0  0  0  0  0  0  0  0  0  9  0  0
   -0.7628   -0.9249    1.2533 H   0  0  0  0  0  0  0  0  0 10  0  0
    1.6428   -0.9265    1.5368 H   0  0  0  0  0  0  0  0  0 11  0  0
    3.0677    0.6130    0.3812 H   0  0  0  0  0  0  0  0  0 12  0  0
    1.7031    1.0975   -0.7605 H   0  0  0  0  0  0  0  0  0 13  0  0
  1  4  1  0
  2  7  1  0
  2  8  1  0
  2  3  1  0
  3  4  1  0
  3  9  1  0
  4  5  1  0
  4 10  1  0
  5 11  1  0
  5  6  1  0
  6 13  1  0
  6 12  1  0
M  END
>  <rmg_smiles>  (2) 
[CH2][CH]C[CH][CH2]

>  <rmg_adjacency_list>  (2) 
1  C u0 p0 c0 {2,S} {3,S} {6,S} {7,S}
2  C u0 p0 c0 {1,S} {4,S} {8,S}
3  C u0 p0 c0 {1,S} {5,S} {9,S}
4  C u0 p0 c0 {2,S} {10,S} {11,S}
5  C u0 p0 c0 {3,S} {12,S} {13,S}
6  H u0 p0 c0 {1,S}
7  H u0 p0 c0 {1,S}
8  H u0 p0 c0 {2,S}
9  H u0 p0 c0 {3,S}
10 H u0 p0 c0 {4,S}
11 H u0 p0 c0 {4,S}
12 H u0 p0 c0 {5,S}
13 H u0 p0 c0 {5,S}


>  <multiplicity>  (2) 
1

>  <reaction>  (2) 
rxn_1813

>  <type>  (2) 
r2h

>  <role_mapnums>  (2) 
{"r2h_a": 4, "r2h_h": 1}

>  <role_mapidx>  (2) 
{"r2h_a": 3, "r2h_h": 0}

>  <ordered_mapped_smiles>  (2) 
[H:1][C:4]([CH:3]([CH:2]([H:7])[H:8])[H:9])([CH:5]([CH:6]([H:12])[H:13])[H:11])[H:10]

>  <mol_properties>  (2) 
{"0": {"label": "a_hydrogen", "atom_type": "H0"}, "3": {"label": "acceptor", "atom_type": "Cs"}}

>  <level_of_theory>  (2) 
wb97xd/def2tzvp

>  <lot_method>  (2) 
wb97xd

>  <lot_basis>  (2) 
def2tzvp

>  <spin_multiplicity>  (2) 
1.0

>  <optical_isomers>  (2) 
2.0

>  <modes>  (2) 
IdealGasTranslation(mass=(68.0626, 'amu')),         NonlinearRotor(             inertia = ([45.0412, 159.938, 187.579

>  <frequency_value>  (2) 
unknown

>  <frequency_units>  (2) 
unknown

>  <frequency_list>  (2) 
unknown

>  <arkane_path>  (2) 
/home/calvin/Dropbox/PersonalFolders/Calvin/HAb_Converged/rxn_1813/output/Species/rxn_1813_C=CCC=C/arkane/output.py

>  <path_exists>  (2) 
True

>  <E0_value>  (2) 
-512473.3799039456

>  <E0_units>  (2) 
kJ/mol

>  <thermo_class>  (2) 
NASA

>  <Cp0_value>  (2) 
33.257888

>  <Cp0_units>  (2) 
J/(mol*K)

>  <CpInf_value>  (2) 
307.635464

>  <CpInf_units>  (2) 
J/(mol*K)

>  <Tmin_value>  (2) 
10.0

>  <Tmin_units>  (2) 
K

>  <Tmax_value>  (2) 
3000.0

>  <Tmax_units>  (2) 
K

>  <polynomials>  (2) 
[{"name": "polynomial1", "class": "NASAPolynomial", "Tmin_value": 10.0, "Tmin_units": "K", "Tmax_value": 819.4804820196184, "Tmax_units": "K", "coeffs": [3.8786961323103277, 0.01518848526354921, 5.629175519915376e-05, -8.158967068239976e-08, 3.30459758185792e-11, -61636312.679365546, 10.298540277465028]}, {"name": "polynomial2", "class": "NASAPolynomial", "Tmin_value": 819.4804820196184, "Tmin_units": "K", "Tmax_value": 3000.0, "Tmax_units": "K", "coeffs": [0.9713570478533602, 0.04440309225960069, -2.468286623666531e-05, 6.656489578832237e-09, -7.002700885295111e-13, -61636340.62723716, 20.6681030649648]}]

>  <H298_value>  (2) 
-122479.74618776135

>  <H298_units>  (2) 
kcal/mol

>  <S298_value>  (2) 
77.03784100856907

>  <S298_units>  (2) 
cal/(mol*K)

>  <Cp_T_value_list>  (2) 
[22.98452912921813, 28.98342495343222, 34.60231709225981, 39.57761952390819, 47.33114131422195, 52.95468648559353, 61.52407504834919, 65.76395981018108, 67.86608281001313]

>  <Cp_T_units>  (2) 
cal/(mol*K)

>  <T_list>  (2) 
[300.0, 400.0, 500.0, 600.0, 800.0, 1000.0, 1500.0, 2000.0, 2400.0]

>  <T_units>  (2) 
K

>  <yaml_path>  (2) 
/home/calvin/Dropbox/PersonalFolders/Calvin/HAb_Converged/rxn_1813/output/Species/rxn_1813_C=CCC=C/rxn_1813_C=CCC=C.yml

>  <frequencies_cm1>  (2) 
[87.95234797856001, 151.90458226372, 257.19606817528, 416.50326061396, 498.01437636235994, 571.25077480016, 682.49593698416, 887.8393990081199, 919.5923391278, 958.3564712591999, 961.16506825508, 963.55477914644, 1034.0581174268798, 1039.2220903875198, 1080.8909573092799, 1137.2757737718, 1245.9046145488799, 1315.20623039832, 1324.3393208739199, 1346.8492987528798, 1434.93211945252, 1443.44718124932, 1463.70478794332, 1713.3403052812798, 1720.18668964532, 2995.26912481888, 3030.3800207600398, 3111.8568015818396, 3116.1074654949202, 3123.6062134643594, 3128.7427184837197, 3202.1645255251597, 3207.6031778986]

>  <ZPE_kJmol>  (2) 
296.4999886896896

>  <E_elec_kJmol>  (2) 
-512769.8798926352

>  <E0_minus_Eelec_plus_ZPE_kJmol>  (2) 
0.0

>  <rxn>  (2) 
rxn_1813

>  <species_type>  (2) 
p0

>  <species_folder>  (2) 
rxn_1813_C=CCC=C

>  <frequencies_cm1_list>  (2) 
[87.95234797856001, 151.90458226372, 257.19606817528, 416.50326061396, 498.01437636235994, 571.25077480016, 682.49593698416, 887.8393990081199, 919.5923391278, 958.3564712591999, 961.16506825508, 963.55477914644, 1034.0581174268798, 1039.2220903875198, 1080.8909573092799, 1137.2757737718, 1245.9046145488799, 1315.20623039832, 1324.3393208739199, 1346.8492987528798, 1434.93211945252, 1443.44718124932, 1463.70478794332, 1713.3403052812798, 1720.18668964532, 2995.26912481888, 3030.3800207600398, 3111.8568015818396, 3116.1074654949202, 3123.6062134643594, 3128.7427184837197, 3202.1645255251597, 3207.6031778986]

>  <E0_kJmol>  (2) 
-512473

>  <H298_kJmol>  (2) 
-512455

$$$$

     RDKit          3D

 18 16  0  0  0  0  0  0  0  0999 V2000
    0.0215   -1.7664   -0.1356 C   0  0  0  0  0  3  0  0  0  1  0  0
    0.8317   -1.2621   -1.6049 S   0  0  0  0  0  0  0  0  0  2  0  0
   -0.2046   -0.5602    0.6529 H   0  0  0  0  0  0  0  0  0  3  0  0
   -0.9811   -2.1277   -0.3421 H   0  0  0  0  0  0  0  0  0  4  0  0
    0.5953   -2.3989    0.5347 H   0  0  0  0  0  0  0  0  0  5  0  0
    1.9957   -0.9092   -1.0423 H   0  0  0  0  0  0  0  0  0  6  0  0
   -2.3312    1.6838    0.3250 C   0  0  0  0  0  0  0  0  0  7  0  0
   -1.0332    1.4046    0.2550 C   0  0  0  0  0  0  0  0  0  8  0  0
   -0.3071    0.5734    1.2263 C   0  0  0  0  0  0  0  0  0  9  0  0
    1.0931    0.8938    1.5583 C   0  0  0  0  0  0  0  0  0 10  0  0
    1.8990    1.7418    0.9229 C   0  0  0  0  0  0  0  0  0 11  0  0
   -2.8257    2.2657   -0.4419 H   0  0  0  0  0  0  0  0  0 12  0  0
   -2.9401    1.3443    1.1562 H   0  0  0  0  0  0  0  0  0 13  0  0
   -0.4687    1.7595   -0.6017 H   0  0  0  0  0  0  0  0  0 14  0  0
   -0.9025    0.3287    2.1068 H   0  0  0  0  0  0  0  0  0 15  0  0
    1.5031    0.3271    2.3903 H   0  0  0  0  0  0  0  0  0 16  0  0
    2.9279    1.8667    1.2347 H   0  0  0  0  0  0  0  0  0 17  0  0
    1.5634    2.3512    0.0930 H   0  0  0  0  0  0  0  0  0 18  0  0
  1  5  1  0
  1  4  1  0
  1  2  1  0
  2  6  1  0
  3  9  1  0
  7 13  1  0
  7 12  1  0
  7  8  1  0
  8  9  1  0
  8 14  1  0
  9 10  1  0
  9 15  1  0
 10 16  1  0
 10 11  1  0
 11 18  1  0
 11 17  1  0
M  RAD  1   1   2
M  END
>  <rmg_smiles>  (3) 
[CH2][CH]C[CH][CH2].[CH2]S

>  <rmg_adjacency_list>  (3) 
multiplicity 2
1  S u0 p2 c0 {7,S} {18,S}
2  C u0 p0 c0 {3,S} {4,S} {8,S} {9,S}
3  C u0 p0 c0 {2,S} {5,S} {10,S}
4  C u0 p0 c0 {2,S} {6,S} {11,S}
5  C u0 p0 c0 {3,S} {12,S} {13,S}
6  C u0 p0 c0 {4,S} {14,S} {15,S}
7  C u1 p0 c0 {1,S} {16,S} {17,S}
8  H u0 p0 c0 {2,S}
9  H u0 p0 c0 {2,S}
10 H u0 p0 c0 {3,S}
11 H u0 p0 c0 {4,S}
12 H u0 p0 c0 {5,S}
13 H u0 p0 c0 {5,S}
14 H u0 p0 c0 {6,S}
15 H u0 p0 c0 {6,S}
16 H u0 p0 c0 {7,S}
17 H u0 p0 c0 {7,S}
18 H u0 p0 c0 {1,S}


>  <multiplicity>  (3) 
2

>  <reaction>  (3) 
rxn_1813

>  <type>  (3) 
ts

>  <role_mapnums>  (3) 
{"*2": 3, "*1": 1, "*3": 9, "*0": 8, "*4": 2}

>  <role_mapidx>  (3) 
{"*2": 2, "*1": 0, "*3": 8, "*0": 7, "*4": 1}

>  <ordered_mapped_smiles>  (3) 
[C:1]([S:2][H:6])([H:4])[H:5].[H:3][C:9]([CH:8]([CH:7]([H:12])[H:13])[H:14])([CH:10]([CH:11]([H:17])[H:18])[H:16])[H:15]

>  <mol_properties>  (3) 
{"0": {"label": "*1", "atom_type": "Cs"}, "1": {"label": "*4", "atom_type": "S2s"}, "2": {"label": "*2", "atom_type": "H0"}, "7": {"label": "*0", "atom_type": "Cs"}, "8": {"label": "*3", "atom_type": "Cs"}}

>  <level_of_theory>  (3) 
wb97xd/def2tzvp

>  <lot_method>  (3) 
wb97xd

>  <lot_basis>  (3) 
def2tzvp

>  <spin_multiplicity>  (3) 
2.0

>  <optical_isomers>  (3) 
2.0

>  <modes>  (3) 
IdealGasTranslation(mass=(115.058, 'amu')),         NonlinearRotor(             inertia = ([233.18, 397.902, 516.568

>  <frequency_value>  (3) 
-1622.92

>  <frequency_units>  (3) 
cm^-1

>  <frequency_list>  (3) 
unknown

>  <arkane_path>  (3) 
/home/calvin/Dropbox/PersonalFolders/Calvin/HAb_Converged/rxn_1813/output/rxns/TS0/arkane/output.py

>  <path_exists>  (3) 
True

>  <E0_value>  (3) 
-1662460.0

>  <E0_units>  (3) 
kJ/mol

>  <thermo_class>  (3) 
unknown

>  <Cp0_value>  (3) 
unknown

>  <Cp0_units>  (3) 
unknown

>  <CpInf_value>  (3) 
unknown

>  <CpInf_units>  (3) 
unknown

>  <Tmin_value>  (3) 
unknown

>  <Tmin_units>  (3) 
unknown

>  <Tmax_value>  (3) 
unknown

>  <Tmax_units>  (3) 
unknown

>  <polynomials>  (3) 
unknown

>  <H298_value>  (3) 
unknown

>  <H298_units>  (3) 
unknown

>  <S298_value>  (3) 
unknown

>  <S298_units>  (3) 
unknown

>  <Cp_T_value_list>  (3) 
unknown

>  <Cp_T_units>  (3) 
unknown

>  <T_list>  (3) 
unknown

>  <T_units>  (3) 
unknown

>  <yaml_path>  (3) 
unknown

>  <frequencies_cm1>  (3) 
unknown

>  <ZPE_kJmol>  (3) 
unknown

>  <E_elec_kJmol>  (3) 
unknown

>  <E0_minus_Eelec_plus_ZPE_kJmol>  (3) 
unknown

>  <rxn>  (3) 
unknown

>  <species_type>  (3) 
unknown

>  <species_folder>  (3) 
unknown

>  <frequencies_cm1_list>  (3) 
[]

>  <ts_imag_freq_cm1>  (3) 
-1642.6267

>  <ts_freq_out_path>  (3) 
/home/calvin/Dropbox/PersonalFolders/Calvin/HAb_Converged/rxn_1813/output/rxns/TS0/geometry/freq.out

>  <E0_kJmol>  (3) 
-1.66246e+06

>  <H298_kJmol>  (3) 
unknown

$$$$

     RDKit          3D

  5  4  0  0  0  0  0  0  0  0999 V2000
   -0.5642    0.0794    0.0348 C   0  0  0  0  0  3  0  0  0  1  0  0
    1.0624    0.5420    0.2853 S   0  0  0  0  0  0  0  0  0  2  0  0
   -1.3257    0.7631    0.3741 H   0  0  0  0  0  0  0  0  0  3  0  0
   -0.8236   -0.8519   -0.4401 H   0  0  0  0  0  0  0  0  0  4  0  0
    1.6511   -0.5325   -0.2540 H   0  0  0  0  0  0  0  0  0  5  0  0
  1  3  1  0
  1  2  1  0
  1  4  1  0
  2  5  1  0
M  RAD  1   1   2
M  END
>  <rmg_smiles>  (4) 
[CH2]S

>  <rmg_adjacency_list>  (4) 
multiplicity 2
1 S u0 p2 c0 {2,S} {5,S}
2 C u1 p0 c0 {1,S} {3,S} {4,S}
3 H u0 p0 c0 {2,S}
4 H u0 p0 c0 {2,S}
5 H u0 p0 c0 {1,S}


>  <multiplicity>  (4) 
2

>  <reaction>  (4) 
rxn_1813

>  <type>  (4) 
r1

>  <role_mapnums>  (4) 
{}

>  <role_mapidx>  (4) 
{}

>  <ordered_mapped_smiles>  (4) 
[C:1]([S:2][H:5])([H:3])[H:4]

>  <level_of_theory>  (4) 
wb97xd/def2tzvp

>  <lot_method>  (4) 
wb97xd

>  <lot_basis>  (4) 
def2tzvp

>  <spin_multiplicity>  (4) 
2.0

>  <optical_isomers>  (4) 
1.0

>  <modes>  (4) 
IdealGasTranslation(mass=(46.9956, 'amu')),         NonlinearRotor(             inertia = ([3.47508, 32.1188, 35.5939

>  <frequency_value>  (4) 
unknown

>  <frequency_units>  (4) 
unknown

>  <frequency_list>  (4) 
unknown

>  <arkane_path>  (4) 
/home/calvin/Dropbox/PersonalFolders/Calvin/HAb_Converged/rxn_1813/output/Species/rxn_1813_[CH2]S/arkane/output.py

>  <path_exists>  (4) 
True

>  <E0_value>  (4) 
-1150024.3332710424

>  <E0_units>  (4) 
kJ/mol

>  <thermo_class>  (4) 
NASA

>  <Cp0_value>  (4) 
33.257888

>  <Cp0_units>  (4) 
J/(mol*K)

>  <CpInf_value>  (4) 
108.088136

>  <CpInf_units>  (4) 
J/(mol*K)

>  <Tmin_value>  (4) 
10.0

>  <Tmin_units>  (4) 
K

>  <Tmax_value>  (4) 
3000.0

>  <Tmax_units>  (4) 
K

>  <polynomials>  (4) 
[{"name": "polynomial1", "class": "NASAPolynomial", "Tmin_value": 10.0, "Tmin_units": "K", "Tmax_value": 228.7632631011955, "Tmax_units": "K", "coeffs": [3.952412159768893, 0.004869189743453995, 7.700507410130638e-05, -3.7784535832034173e-07, 5.662383077803353e-10, -138315979.8249789, 6.828268654504248]}, {"name": "polynomial2", "class": "NASAPolynomial", "Tmin_value": 228.7632631011955, "Tmin_units": "K", "Tmax_value": 3000.0, "Tmax_units": "K", "coeffs": [4.0647189913044315, 0.010177206447780005, -5.480339108667681e-06, 1.4876276440090965e-09, -1.6083284592339647e-13, -138316003.99077362, 6.036236642771031]}]

>  <H298_value>  (4) 
-274859.2476351292

>  <H298_units>  (4) 
kcal/mol

>  <S298_value>  (4) 
63.58185598753384

>  <S298_units>  (4) 
cal/(mol*K)

>  <Cp_T_value_list>  (4) 
[13.241777557438835, 14.605646175289959, 15.816452446168032, 16.888481942792666, 18.669517607236212, 20.047696562682138, 22.269217674285446, 23.499652986162165, 24.148886967222168]

>  <Cp_T_units>  (4) 
cal/(mol*K)

>  <T_list>  (4) 
[300.0, 400.0, 500.0, 600.0, 800.0, 1000.0, 1500.0, 2000.0, 2400.0]

>  <T_units>  (4) 
K

>  <yaml_path>  (4) 
/home/calvin/Dropbox/PersonalFolders/Calvin/HAb_Converged/rxn_1813/output/Species/rxn_1813_[CH2]S/rxn_1813_CH2S.yml

>  <frequencies_cm1>  (4) 
[112.26147601135997, 339.84023650148, 784.39513214764, 853.62121115856, 1068.3930440268798, 1401.38689616432, 2708.6686255033596, 3159.5548816145597, 3285.6189981191196]

>  <ZPE_kJmol>  (4) 
82.02640747232539

>  <E_elec_kJmol>  (4) 
-1150106.3596785148

>  <E0_minus_Eelec_plus_ZPE_kJmol>  (4) 
0.0

>  <rxn>  (4) 
rxn_1813

>  <species_type>  (4) 
p1

>  <species_folder>  (4) 
rxn_1813_[CH2]S

>  <frequencies_cm1_list>  (4) 
[112.26147601135997, 339.84023650148, 784.39513214764, 853.62121115856, 1068.3930440268798, 1401.38689616432, 2708.6686255033596, 3159.5548816145597, 3285.6189981191196]

>  <E0_kJmol>  (4) 
-1.15002e+06

>  <H298_kJmol>  (4) 
-1.15001e+06

$$$$

     RDKit          3D

 12 11  0  0  0  0  0  0  0  0999 V2000
   -2.3791    0.4612   -0.5870 C   0  0  0  0  0  0  0  0  0  1  0  0
   -1.3422   -0.3138   -0.1893 C   0  0  0  0  0  0  0  0  0  2  0  0
   -1.4723   -1.6058    0.3589 C   0  0  0  0  0  3  0  0  0  3  0  0
   -0.3798   -2.3973    0.7671 C   0  0  0  0  0  0  0  0  0  4  0  0
   -0.4849   -3.6397    1.2956 C   0  0  0  0  0  0  0  0  0  5  0  0
   -2.2205    1.4472   -1.0017 H   0  0  0  0  0  0  0  0  0  6  0  0
   -3.4026    0.1153   -0.5011 H   0  0  0  0  0  0  0  0  0  7  0  0
   -0.3330    0.0765   -0.2952 H   0  0  0  0  0  0  0  0  0  8  0  0
   -2.4723   -2.0151    0.4735 H   0  0  0  0  0  0  0  0  0  9  0  0
    0.6117   -1.9687    0.6436 H   0  0  0  0  0  0  0  0  0 10  0  0
    0.3893   -4.2030    1.5920 H   0  0  0  0  0  0  0  0  0 11  0  0
   -1.4516   -4.1084    1.4378 H   0  0  0  0  0  0  0  0  0 12  0  0
  1  7  1  0
  1  6  1  0
  1  2  1  0
  2  8  1  0
  2  3  1  0
  3  4  1  0
  3  9  1  0
  4  5  1  0
  4 10  1  0
  5 11  1  0
  5 12  1  0
M  RAD  1   3   2
M  END
>  <rmg_smiles>  (5) 
[CH2][CH][CH][CH][CH2]

>  <rmg_adjacency_list>  (5) 
multiplicity 2
1  C u1 p0 c0 {2,S} {3,S} {7,S}
2  C u0 p0 c0 {1,S} {4,S} {6,S}
3  C u0 p0 c0 {1,S} {5,S} {8,S}
4  C u0 p0 c0 {2,S} {9,S} {10,S}
5  C u0 p0 c0 {3,S} {11,S} {12,S}
6  H u0 p0 c0 {2,S}
7  H u0 p0 c0 {1,S}
8  H u0 p0 c0 {3,S}
9  H u0 p0 c0 {4,S}
10 H u0 p0 c0 {4,S}
11 H u0 p0 c0 {5,S}
12 H u0 p0 c0 {5,S}


>  <multiplicity>  (5) 
2

>  <reaction>  (5) 
rxn_1813

>  <type>  (5) 
r2

>  <role_mapnums>  (5) 
{}

>  <role_mapidx>  (5) 
{}

>  <ordered_mapped_smiles>  (5) 
[CH:1]([CH:2]([C:3]([CH:4]([CH:5]([H:11])[H:12])[H:10])[H:9])[H:8])([H:6])[H:7]

>  <level_of_theory>  (5) 
wb97xd/def2tzvp

>  <lot_method>  (5) 
wb97xd

>  <lot_basis>  (5) 
def2tzvp

>  <spin_multiplicity>  (5) 
2.0

>  <optical_isomers>  (5) 
1.0

>  <modes>  (5) 
IdealGasTranslation(mass=(67.0548, 'amu')),         NonlinearRotor(             inertia = ([15.7789, 219.5, 235.279

>  <frequency_value>  (5) 
unknown

>  <frequency_units>  (5) 
unknown

>  <frequency_list>  (5) 
unknown

>  <arkane_path>  (5) 
/home/calvin/Dropbox/PersonalFolders/Calvin/HAb_Converged/rxn_1813/output/Species/rxn_1813_C=C[CH]C=C/arkane/output.py

>  <path_exists>  (5) 
True

>  <E0_value>  (5) 
-510855.5740845963

>  <E0_units>  (5) 
kJ/mol

>  <thermo_class>  (5) 
NASA

>  <Cp0_value>  (5) 
33.257888

>  <Cp0_units>  (5) 
J/(mol*K)

>  <CpInf_value>  (5) 
282.692048

>  <CpInf_units>  (5) 
J/(mol*K)

>  <Tmin_value>  (5) 
10.0

>  <Tmin_units>  (5) 
K

>  <Tmax_value>  (5) 
3000.0

>  <Tmax_units>  (5) 
K

>  <polynomials>  (5) 
[{"name": "polynomial1", "class": "NASAPolynomial", "Tmin_value": 10.0, "Tmin_units": "K", "Tmax_value": 495.4878151432132, "Tmax_units": "K", "coeffs": [3.9321249944863483, 0.00423695957790186, 0.0001349399275202858, -2.634227208589526e-07, 1.6274994210018014e-10, -61441731.262755215, 9.350068005934219]}, {"name": "polynomial2", "class": "NASAPolynomial", "Tmin_value": 495.4878151432132, "Tmin_units": "K", "Tmax_value": 3000.0, "Tmax_units": "K", "coeffs": [0.4670964234865551, 0.045134514665170086, -2.799782078865831e-05, 8.451471558998603e-09, -9.87511530345911e-13, -61441546.54518628, 22.032609970692913]}]

>  <H298_value>  (5) 
-122093.21999312405

>  <H298_units>  (5) 
kcal/mol

>  <S298_value>  (5) 
73.53286475276235

>  <S298_units>  (5) 
cal/(mol*K)

>  <Cp_T_value_list>  (5) 
[22.959522992008456, 28.863462234795744, 33.84135772821174, 38.08705038621403, 44.86868164007071, 49.81479641743779, 57.029271536556216, 60.72193750581066, 62.780551438557175]

>  <Cp_T_units>  (5) 
cal/(mol*K)

>  <T_list>  (5) 
[300.0, 400.0, 500.0, 600.0, 800.0, 1000.0, 1500.0, 2000.0, 2400.0]

>  <T_units>  (5) 
K

>  <yaml_path>  (5) 
/home/calvin/Dropbox/PersonalFolders/Calvin/HAb_Converged/rxn_1813/output/Species/rxn_1813_C=C[CH]C=C/rxn_1813_C=CCHC=C.yml

>  <frequencies_cm1>  (5) 
[152.447074104, 206.60012033752, 248.40632696568, 457.56783282756, 491.88902545691997, 588.7066514835999, 627.8209998663199, 832.6631719619199, 870.4315912219199, 882.064264354, 920.7322586909199, 984.0870652532399, 1007.05026416332, 1023.1327437827599, 1134.86546192448, 1248.1157838219199, 1283.31595057224, 1294.9760916455998, 1300.263670342, 1433.84713577196, 1468.49107671136, 1516.66297873116, 1589.96804702216, 3115.7572492435997, 3116.0319286563995, 3124.4645866293595, 3126.14013104744, 3128.61224576264, 3219.8676136801196, 3219.9431505186403]

>  <ZPE_kJmol>  (5) 
260.8752443523687

>  <E_elec_kJmol>  (5) 
-511116.4493289487

>  <E0_minus_Eelec_plus_ZPE_kJmol>  (5) 
0.0

>  <rxn>  (5) 
rxn_1813

>  <species_type>  (5) 
r1

>  <species_folder>  (5) 
rxn_1813_C=C[CH]C=C

>  <frequencies_cm1_list>  (5) 
[152.447074104, 206.60012033752, 248.40632696568, 457.56783282756, 491.88902545691997, 588.7066514835999, 627.8209998663199, 832.6631719619199, 870.4315912219199, 882.064264354, 920.7322586909199, 984.0870652532399, 1007.05026416332, 1023.1327437827599, 1134.86546192448, 1248.1157838219199, 1283.31595057224, 1294.9760916455998, 1300.263670342, 1433.84713577196, 1468.49107671136, 1516.66297873116, 1589.96804702216, 3115.7572492435997, 3116.0319286563995, 3124.4645866293595, 3126.14013104744, 3128.61224576264, 3219.8676136801196, 3219.9431505186403]

>  <E0_kJmol>  (5) 
-510856

>  <H298_kJmol>  (5) 
-510838

$$$$
