
     RDKit          3D

  7  6  0  0  0  0  0  0  0  0999 V2000
    0.8620    0.0007   -1.0377 C   0  0  0  0  0  2  0  0  0  1  0  0
    0.0731   -0.0353   -0.1260 C   0  0  0  0  0  2  0  0  0  2  0  0
   -0.8144   -0.0173    0.9626 C   0  0  0  0  0  0  0  0  0  3  0  0
    1.5471    0.0090   -1.8511 H   0  0  0  0  0  0  0  0  0  4  0  0
   -0.5540    0.8518    1.5587 H   0  0  0  0  0  0  0  0  0  5  0  0
   -0.6700   -0.7713    1.7301 H   0  0  0  0  0  0  0  0  0  6  0  0
   -1.8505    0.2254    0.7482 H   0  0  0  0  0  0  0  0  0  7  0  0
  1  4  1  0
  1  2  1  0
  2  3  1  0
  3  6  1  0
  3  7  1  0
  3  5  1  0
M  RAD  2   1   3   2   3
M  END
>  <rmg_smiles>  (1) 
[CH][C]C

>  <rmg_adjacency_list>  (1) 
1 C u0 p0 c0 {2,S} {4,S} {5,S} {6,S}
2 C u0 p1 c0 {1,S} {3,S}
3 C u0 p1 c0 {2,S} {7,S}
4 H u0 p0 c0 {1,S}
5 H u0 p0 c0 {1,S}
6 H u0 p0 c0 {1,S}
7 H u0 p0 c0 {3,S}


>  <multiplicity>  (1) 
1

>  <reaction>  (1) 
rxn_1240

>  <type>  (1) 
r1h

>  <role_mapnums>  (1) 
{"r1h_a": 3, "r1h_h": 5}

>  <role_mapidx>  (1) 
{"r1h_a": 2, "r1h_h": 4}

>  <ordered_mapped_smiles>  (1) 
[C:1]([C:2][C:3]([H:5])([H:6])[H:7])[H:4]

>  <mol_properties>  (1) 
{"2": {"label": "donator", "atom_type": "Cs"}, "4": {"label": "d_hydrogen", "atom_type": "H0"}}

>  <level_of_theory>  (1) 
wb97xd/def2tzvp

>  <lot_method>  (1) 
wb97xd

>  <lot_basis>  (1) 
def2tzvp

>  <spin_multiplicity>  (1) 
1.0

>  <optical_isomers>  (1) 
1.0

>  <modes>  (1) 
IdealGasTranslation(mass=(40.0313, 'amu')),         NonlinearRotor(             inertia = ([3.14896, 58.5627, 58.5628

>  <frequency_value>  (1) 
unknown

>  <frequency_units>  (1) 
unknown

>  <frequency_list>  (1) 
unknown

>  <arkane_path>  (1) 
/home/calvin/Dropbox/PersonalFolders/Calvin/HAb_Converged/rxn_1240/output/Species/rxn_1240_CtCC/arkane/output.py

>  <path_exists>  (1) 
True

>  <E0_value>  (1) 
-306134.23771519226

>  <E0_units>  (1) 
kJ/mol

>  <thermo_class>  (1) 
NASA

>  <Cp0_value>  (1) 
33.257888

>  <Cp0_units>  (1) 
J/(mol*K)

>  <CpInf_value>  (1) 
157.97496800000002

>  <CpInf_units>  (1) 
J/(mol*K)

>  <Tmin_value>  (1) 
10.0

>  <Tmin_units>  (1) 
K

>  <Tmax_value>  (1) 
3000.0

>  <Tmax_units>  (1) 
K

>  <polynomials>  (1) 
[{"name": "polynomial1", "class": "NASAPolynomial", "Tmin_value": 10.0, "Tmin_units": "K", "Tmax_value": 432.7570457536586, "Tmax_units": "K", "coeffs": [3.9797872721783007, 0.0012495811779551272, 5.6294196303513694e-05, -1.0182025216581548e-07, 6.043505350989284e-11, -36819443.321551986, 4.877022759632036]}, {"name": "polynomial2", "class": "NASAPolynomial", "Tmin_value": 432.7570457536586, "Tmin_units": "K", "Tmax_value": 3000.0, "Tmax_units": "K", "coeffs": [1.8482488679261548, 0.020955787311649748, -1.2025217015703147e-05, 3.449280939574018e-09, -3.914023780269935e-13, -36819258.87384146, 13.374670545299223]}]

>  <H298_value>  (1) 
-73164.72574977479

>  <H298_units>  (1) 
kcal/mol

>  <S298_value>  (1) 
58.90709306772092

>  <S298_units>  (1) 
cal/(mol*K)

>  <Cp_T_value_list>  (1) 
[14.231411982223385, 16.92569828262598, 19.32863505161705, 21.43592113918368, 24.884700514699873, 27.496375671717598, 31.566855118352027, 33.76415845868588, 34.923080757091356]

>  <Cp_T_units>  (1) 
cal/(mol*K)

>  <T_list>  (1) 
[300.0, 400.0, 500.0, 600.0, 800.0, 1000.0, 1500.0, 2000.0, 2400.0]

>  <T_units>  (1) 
K

>  <yaml_path>  (1) 
/home/calvin/Dropbox/PersonalFolders/Calvin/HAb_Converged/rxn_1240/output/Species/rxn_1240_CtCC/rxn_1240_CtCC.yml

>  <frequencies_cm1>  (1) 
[351.89179573808, 352.26261294536, 684.0272747105199, 684.34315603524, 939.24565111364, 1048.18350623012, 1048.35518086312, 1402.57488462468, 1465.46960317056, 1465.7648835393202, 2230.0054137727598, 3022.8812727906, 3095.33483490192, 3095.7125190945194, 3438.9862482559997]

>  <ZPE_kJmol>  (1) 
145.49608455161717

>  <E_elec_kJmol>  (1) 
-306279.7337997439

>  <E0_minus_Eelec_plus_ZPE_kJmol>  (1) 
0.0

>  <rxn>  (1) 
rxn_1240

>  <species_type>  (1) 
r0

>  <species_folder>  (1) 
rxn_1240_CtCC

>  <frequencies_cm1_list>  (1) 
[351.89179573808, 352.26261294536, 684.0272747105199, 684.34315603524, 939.24565111364, 1048.18350623012, 1048.35518086312, 1402.57488462468, 1465.46960317056, 1465.7648835393202, 2230.0054137727598, 3022.8812727906, 3095.33483490192, 3095.7125190945194, 3438.9862482559997]

>  <E0_kJmol>  (1) 
-306134

>  <H298_kJmol>  (1) 
-306121

$$$$

     RDKit          3D

 13 12  0  0  0  0  0  0  0  0999 V2000
   -0.1968   -0.8017   -1.4896 H   0  0  0  0  0  0  0  0  0  1  0  0
   -0.6677   -0.4152    1.6139 S   0  0  0  0  0  0  0  0  0  2  0  0
   -0.7245    0.2159    0.1192 C   0  0  0  0  0  0  0  0  0  3  0  0
    0.2440    0.0411   -0.9573 C   0  0  0  0  0  0  0  0  0  4  0  0
    0.2403    1.1309   -2.0117 C   0  0  0  0  0  0  0  0  0  5  0  0
    1.6177   -0.4753   -0.6010 C   0  0  0  0  0  0  0  0  0  6  0  0
   -1.6008    0.8027   -0.1638 H   0  0  0  0  0  0  0  0  0  7  0  0
    0.7913    2.0064   -1.6581 H   0  0  0  0  0  0  0  0  0  8  0  0
    0.7239    0.7773   -2.9240 H   0  0  0  0  0  0  0  0  0  9  0  0
   -0.7741    1.4463   -2.2616 H   0  0  0  0  0  0  0  0  0 10  0  0
    2.1464   -0.7848   -1.5041 H   0  0  0  0  0  0  0  0  0 11  0  0
    1.5595   -1.3178    0.0865 H   0  0  0  0  0  0  0  0  0 12  0  0
    2.2013    0.3103   -0.1141 H   0  0  0  0  0  0  0  0  0 13  0  0
  1  4  1  0
  2  3  1  0
  3  4  1  0
  3  7  1  0
  4  5  1  0
  4  6  1  0
  5  8  1  0
  5  9  1  0
  5 10  1  0
  6 13  1  0
  6 11  1  0
  6 12  1  0
M  END
>  <rmg_smiles>  (2) 
[S][CH]C(C)C

>  <rmg_adjacency_list>  (2) 
1  S u0 p2 c0 {5,S}
2  C u0 p0 c0 {3,S} {4,S} {5,S} {6,S}
3  C u0 p0 c0 {2,S} {7,S} {8,S} {9,S}
4  C u0 p0 c0 {2,S} {10,S} {11,S} {12,S}
5  C u0 p0 c0 {1,S} {2,S} {13,S}
6  H u0 p0 c0 {2,S}
7  H u0 p0 c0 {3,S}
8  H u0 p0 c0 {3,S}
9  H u0 p0 c0 {3,S}
10 H u0 p0 c0 {4,S}
11 H u0 p0 c0 {4,S}
12 H u0 p0 c0 {4,S}
13 H u0 p0 c0 {5,S}


>  <multiplicity>  (2) 
1

>  <reaction>  (2) 
rxn_1240

>  <type>  (2) 
r2h

>  <role_mapnums>  (2) 
{"r2h_a": 4, "r2h_h": 1}

>  <role_mapidx>  (2) 
{"r2h_a": 3, "r2h_h": 0}

>  <ordered_mapped_smiles>  (2) 
[H:1][C:4]([CH:3]([SH:2])[H:7])([C:5]([H:8])([H:9])[H:10])[C:6]([H:11])([H:12])[H:13]

>  <mol_properties>  (2) 
{"0": {"label": "a_hydrogen", "atom_type": "H0"}, "3": {"label": "acceptor", "atom_type": "Cs"}}

>  <level_of_theory>  (2) 
wb97xd/def2tzvp

>  <lot_method>  (2) 
wb97xd

>  <lot_basis>  (2) 
def2tzvp

>  <spin_multiplicity>  (2) 
1.0

>  <optical_isomers>  (2) 
2.0

>  <modes>  (2) 
IdealGasTranslation(mass=(88.0347, 'amu')),         NonlinearRotor(             inertia = ([69.6476, 205.177, 249.287

>  <frequency_value>  (2) 
unknown

>  <frequency_units>  (2) 
unknown

>  <frequency_list>  (2) 
unknown

>  <arkane_path>  (2) 
/home/calvin/Dropbox/PersonalFolders/Calvin/HAb_Converged/rxn_1240/output/Species/rxn_1240_S=CC[C]C/arkane/output.py

>  <path_exists>  (2) 
True

>  <E0_value>  (2) 
-1457998.5982336933

>  <E0_units>  (2) 
kJ/mol

>  <thermo_class>  (2) 
NASA

>  <Cp0_value>  (2) 
33.257888

>  <Cp0_units>  (2) 
J/(mol*K)

>  <CpInf_value>  (2) 
307.635464

>  <CpInf_units>  (2) 
J/(mol*K)

>  <Tmin_value>  (2) 
10.0

>  <Tmin_units>  (2) 
K

>  <Tmax_value>  (2) 
3000.0

>  <Tmax_units>  (2) 
K

>  <polynomials>  (2) 
[{"name": "polynomial1", "class": "NASAPolynomial", "Tmin_value": 10.0, "Tmin_units": "K", "Tmax_value": 850.5751909331584, "Tmax_units": "K", "coeffs": [3.763703885514242, 0.02277852482010402, 3.2299053490720314e-05, -5.360226294448367e-08, 2.1690872236821852e-11, -175356726.547155, 11.190919245660643]}, {"name": "polynomial2", "class": "NASAPolynomial", "Tmin_value": 850.5751909331584, "Tmin_units": "K", "Tmax_value": 3000.0, "Tmax_units": "K", "coeffs": [2.0035214740016922, 0.042738418303872316, -2.3502321935412024e-05, 6.281315111825424e-09, -6.560549792225942e-13, -175356849.7075047, 16.913744501828855]}]

>  <H298_value>  (2) 
-348465.4118362776

>  <H298_units>  (2) 
kcal/mol

>  <S298_value>  (2) 
80.33314738703915

>  <S298_units>  (2) 
cal/(mol*K)

>  <Cp_T_value_list>  (2) 
[24.30872432409684, 30.14135974077647, 35.53746487056036, 40.323452938173666, 47.88798169363404, 53.386060159439076, 61.820175444511975, 66.0243628186096, 68.0994235508572]

>  <Cp_T_units>  (2) 
cal/(mol*K)

>  <T_list>  (2) 
[300.0, 400.0, 500.0, 600.0, 800.0, 1000.0, 1500.0, 2000.0, 2400.0]

>  <T_units>  (2) 
K

>  <yaml_path>  (2) 
/home/calvin/Dropbox/PersonalFolders/Calvin/HAb_Converged/rxn_1240/output/Species/rxn_1240_S=CC[C]C/rxn_1240_S=CCCC.yml

>  <frequencies_cm1>  (2) 
[81.46304685115999, 222.10577319008, 235.83974383007998, 264.91455967495995, 354.02742817259997, 403.35985071147996, 541.5304623352, 773.7375709309999, 866.2358631914, 917.52537654648, 938.1331994918, 970.7857146884, 1070.15785925412, 1116.20099582472, 1141.9384568040798, 1213.79459119256, 1287.09965948356, 1347.93428243344, 1376.37046864356, 1392.88556833816, 1420.9509373409999, 1469.66533120108, 1474.71256541128, 1487.9727140641999, 1494.5100840888397, 2973.6037861342797, 3014.7782301129996, 3022.28384506776, 3048.6668026672, 3090.6240829723997, 3094.4352598250002, 3098.5897859436, 3105.48423920488]

>  <ZPE_kJmol>  (2) 
288.97191783414803

>  <E_elec_kJmol>  (2) 
-1458287.5701515274

>  <E0_minus_Eelec_plus_ZPE_kJmol>  (2) 
0.0

>  <rxn>  (2) 
rxn_1240

>  <species_type>  (2) 
p0

>  <species_folder>  (2) 
rxn_1240_S=CC[C]C

>  <frequencies_cm1_list>  (2) 
[81.46304685115999, 222.10577319008, 235.83974383007998, 264.91455967495995, 354.02742817259997, 403.35985071147996, 541.5304623352, 773.7375709309999, 866.2358631914, 917.52537654648, 938.1331994918, 970.7857146884, 1070.15785925412, 1116.20099582472, 1141.9384568040798, 1213.79459119256, 1287.09965948356, 1347.93428243344, 1376.37046864356, 1392.88556833816, 1420.9509373409999, 1469.66533120108, 1474.71256541128, 1487.9727140641999, 1494.5100840888397, 2973.6037861342797, 3014.7782301129996, 3022.28384506776, 3048.6668026672, 3090.6240829723997, 3094.4352598250002, 3098.5897859436, 3105.48423920488]

>  <E0_kJmol>  (2) 
-1.458e+06

>  <H298_kJmol>  (2) 
-1.45798e+06

$$$$

     RDKit          3D

 19 17  0  0  0  0  0  0  0  0999 V2000
    1.2009   -1.5370   -3.1758 C   0  0  0  0  0  0  0  0  0  1  0  0
    0.4121   -1.5730   -2.2641 C   0  0  0  0  0  0  0  0  0  2  0  0
   -0.4755   -1.5550   -1.1755 C   0  0  0  0  0  3  0  0  0  3  0  0
    1.8861   -1.5287   -3.9892 H   0  0  0  0  0  0  0  0  0  4  0  0
   -0.1243   -0.3830   -0.3716 H   0  0  0  0  0  0  0  0  0  5  0  0
   -0.3311   -2.3091   -0.4080 H   0  0  0  0  0  0  0  0  0  6  0  0
   -1.5115   -1.3124   -1.3900 H   0  0  0  0  0  0  0  0  0  7  0  0
   -0.5261    0.1358    2.8155 S   0  0  0  0  0  0  0  0  0  8  0  0
   -0.5828    0.7669    1.3208 C   0  0  0  0  0  0  0  0  0  9  0  0
    0.3857    0.5921    0.2444 C   0  0  0  0  0  0  0  0  0 10  0  0
    0.3819    1.6819   -0.8101 C   0  0  0  0  0  0  0  0  0 11  0  0
    1.7594    0.0757    0.6006 C   0  0  0  0  0  0  0  0  0 12  0  0
   -1.4592    1.3537    1.0378 H   0  0  0  0  0  0  0  0  0 13  0  0
    0.9329    2.5574   -0.4565 H   0  0  0  0  0  0  0  0  0 14  0  0
    0.8655    1.3283   -1.7224 H   0  0  0  0  0  0  0  0  0 15  0  0
   -0.6325    1.9973   -1.0600 H   0  0  0  0  0  0  0  0  0 16  0  0
    2.2881   -0.2338   -0.3025 H   0  0  0  0  0  0  0  0  0 17  0  0
    1.7012   -0.7668    1.2881 H   0  0  0  0  0  0  0  0  0 18  0  0
    2.3430    0.8613    1.0875 H   0  0  0  0  0  0  0  0  0 19  0  0
  1  4  1  0
  1  2  1  0
  2  3  1  0
  3  6  1  0
  3  7  1  0
  5 10  1  0
  8  9  1  0
  9 10  1  0
  9 13  1  0
 10 12  1  0
 10 11  1  0
 11 14  1  0
 11 16  1  0
 11 15  1  0
 12 19  1  0
 12 17  1  0
 12 18  1  0
M  RAD  1   3   2
M  END
>  <rmg_smiles>  (3) 
[S][CH]C(C)C.[CH][C][CH2]

>  <rmg_adjacency_list>  (3) 
multiplicity 2
1  S u0 p2 c0 {5,S}
2  C u0 p0 c0 {3,S} {4,S} {5,S} {9,S}
3  C u0 p0 c0 {2,S} {10,S} {11,S} {12,S}
4  C u0 p0 c0 {2,S} {13,S} {14,S} {15,S}
5  C u0 p0 c0 {1,S} {2,S} {16,S}
6  C u1 p0 c0 {7,S} {17,S} {18,S}
7  C u0 p1 c0 {6,S} {8,S}
8  C u0 p1 c0 {7,S} {19,S}
9  H u0 p0 c0 {2,S}
10 H u0 p0 c0 {3,S}
11 H u0 p0 c0 {3,S}
12 H u0 p0 c0 {3,S}
13 H u0 p0 c0 {4,S}
14 H u0 p0 c0 {4,S}
15 H u0 p0 c0 {4,S}
16 H u0 p0 c0 {5,S}
17 H u0 p0 c0 {6,S}
18 H u0 p0 c0 {6,S}
19 H u0 p0 c0 {8,S}


>  <multiplicity>  (3) 
2

>  <reaction>  (3) 
rxn_1240

>  <type>  (3) 
ts

>  <role_mapnums>  (3) 
{"*2": 5, "*1": 3, "*3": 10, "*0": 9, "*4": 2}

>  <role_mapidx>  (3) 
{"*2": 4, "*1": 2, "*3": 9, "*0": 8, "*4": 1}

>  <ordered_mapped_smiles>  (3) 
[CH2:1]([CH2:2][C:3]([H:6])[H:7])[H:4].[H:5][C:10]([CH:9]([SH:8])[H:13])([C:11]([H:14])([H:15])[H:16])[C:12]([H:17])([H:18])[H:19]

>  <mol_properties>  (3) 
{"1": {"label": "*4", "atom_type": "C2s"}, "2": {"label": "*1", "atom_type": "Cs"}, "4": {"label": "*2", "atom_type": "H0"}, "8": {"label": "*0", "atom_type": "Cs"}, "9": {"label": "*3", "atom_type": "Cs"}}

>  <level_of_theory>  (3) 
wb97xd/def2tzvp

>  <lot_method>  (3) 
wb97xd

>  <lot_basis>  (3) 
def2tzvp

>  <spin_multiplicity>  (3) 
2.0

>  <optical_isomers>  (3) 
2.0

>  <modes>  (3) 
IdealGasTranslation(mass=(127.058, 'amu')),         NonlinearRotor(             inertia = ([179.899, 643.18, 698.655

>  <frequency_value>  (3) 
-1575.66

>  <frequency_units>  (3) 
cm^-1

>  <frequency_list>  (3) 
unknown

>  <arkane_path>  (3) 
/home/calvin/Dropbox/PersonalFolders/Calvin/HAb_Converged/rxn_1240/output/rxns/TS0/arkane/output.py

>  <path_exists>  (3) 
True

>  <E0_value>  (3) 
-1762410.0

>  <E0_units>  (3) 
kJ/mol

>  <thermo_class>  (3) 
unknown

>  <Cp0_value>  (3) 
unknown

>  <Cp0_units>  (3) 
unknown

>  <CpInf_value>  (3) 
unknown

>  <CpInf_units>  (3) 
unknown

>  <Tmin_value>  (3) 
unknown

>  <Tmin_units>  (3) 
unknown

>  <Tmax_value>  (3) 
unknown

>  <Tmax_units>  (3) 
unknown

>  <polynomials>  (3) 
unknown

>  <H298_value>  (3) 
unknown

>  <H298_units>  (3) 
unknown

>  <S298_value>  (3) 
unknown

>  <S298_units>  (3) 
unknown

>  <Cp_T_value_list>  (3) 
unknown

>  <Cp_T_units>  (3) 
unknown

>  <T_list>  (3) 
unknown

>  <T_units>  (3) 
unknown

>  <yaml_path>  (3) 
unknown

>  <frequencies_cm1>  (3) 
unknown

>  <ZPE_kJmol>  (3) 
unknown

>  <E_elec_kJmol>  (3) 
unknown

>  <E0_minus_Eelec_plus_ZPE_kJmol>  (3) 
unknown

>  <rxn>  (3) 
unknown

>  <species_type>  (3) 
unknown

>  <species_folder>  (3) 
unknown

>  <frequencies_cm1_list>  (3) 
[]

>  <ts_imag_freq_cm1>  (3) 
-1594.7979

>  <ts_freq_out_path>  (3) 
/home/calvin/Dropbox/PersonalFolders/Calvin/HAb_Converged/rxn_1240/output/rxns/TS0/geometry/freq.out

>  <E0_kJmol>  (3) 
-1.76241e+06

>  <H298_kJmol>  (3) 
unknown

$$$$

     RDKit          3D

  6  5  0  0  0  0  0  0  0  0999 V2000
    1.4968   -0.0097    0.1113 C   0  0  0  0  0  0  0  0  0  1  0  0
    0.2829   -0.0018    0.0210 C   0  0  0  0  0  0  0  0  0  2  0  0
   -1.0795    0.0070   -0.0803 C   0  0  0  0  0  3  0  0  0  3  0  0
    2.5571   -0.0165    0.1902 H   0  0  0  0  0  0  0  0  0  4  0  0
   -1.6181    0.9389   -0.1832 H   0  0  0  0  0  0  0  0  0  5  0  0
   -1.6393   -0.9179   -0.0591 H   0  0  0  0  0  0  0  0  0  6  0  0
  1  4  1  0
  1  2  1  0
  2  3  1  0
  3  6  1  0
  3  5  1  0
M  RAD  1   3   2
M  END
>  <rmg_smiles>  (4) 
[CH]C[CH2]

>  <rmg_adjacency_list>  (4) 
multiplicity 2
1 C u1 p0 c0 {2,S} {4,S} {5,S}
2 C u0 p1 c0 {1,S} {3,S}
3 C u0 p1 c0 {2,S} {6,S}
4 H u0 p0 c0 {1,S}
5 H u0 p0 c0 {1,S}
6 H u0 p0 c0 {3,S}


>  <multiplicity>  (4) 
2

>  <reaction>  (4) 
rxn_1240

>  <type>  (4) 
r1

>  <role_mapnums>  (4) 
{}

>  <role_mapidx>  (4) 
{}

>  <ordered_mapped_smiles>  (4) 
[CH2:1]([CH2:2][C:3]([H:5])[H:6])[H:4]

>  <level_of_theory>  (4) 
wb97xd/def2tzvp

>  <lot_method>  (4) 
wb97xd

>  <lot_basis>  (4) 
def2tzvp

>  <spin_multiplicity>  (4) 
2.0

>  <optical_isomers>  (4) 
1.0

>  <modes>  (4) 
IdealGasTranslation(mass=(39.0235, 'amu')),         NonlinearRotor(             inertia = ([1.74527, 52.5377, 54.2829

>  <frequency_value>  (4) 
unknown

>  <frequency_units>  (4) 
unknown

>  <frequency_list>  (4) 
unknown

>  <arkane_path>  (4) 
/home/calvin/Dropbox/PersonalFolders/Calvin/HAb_Converged/rxn_1240/output/Species/rxn_1240_CtC[CH2]/arkane/output.py

>  <path_exists>  (4) 
True

>  <E0_value>  (4) 
-304448.46556643327

>  <E0_units>  (4) 
kJ/mol

>  <thermo_class>  (4) 
NASA

>  <Cp0_value>  (4) 
33.257888

>  <Cp0_units>  (4) 
J/(mol*K)

>  <CpInf_value>  (4) 
133.031552

>  <CpInf_units>  (4) 
J/(mol*K)

>  <Tmin_value>  (4) 
10.0

>  <Tmin_units>  (4) 
K

>  <Tmax_value>  (4) 
3000.0

>  <Tmax_units>  (4) 
K

>  <polynomials>  (4) 
[{"name": "polynomial1", "class": "NASAPolynomial", "Tmin_value": 10.0, "Tmin_units": "K", "Tmax_value": 545.4322858033976, "Tmax_units": "K", "coeffs": [3.9499603218219184, 0.003017565134064686, 5.5663880593738125e-05, -1.145891938777454e-07, 7.087527216200762e-11, -36616690.41912999, 5.464661756584002]}, {"name": "polynomial2", "class": "NASAPolynomial", "Tmin_value": 545.4322858033976, "Tmin_units": "K", "Tmax_value": 3000.0, "Tmax_units": "K", "coeffs": [3.789373911177466, 0.015460066047789113, -9.533910331026645e-06, 2.9656464623318287e-09, -3.6191150968379614e-13, -36616840.46347278, 4.606005615672744]}]

>  <H298_value>  (4) 
-72761.72685205255

>  <H298_units>  (4) 
kcal/mol

>  <S298_value>  (4) 
60.54560432912815

>  <S298_units>  (4) 
cal/(mol*K)

>  <Cp_T_value_list>  (4) 
[14.596350865656005, 16.978505208172123, 18.840244425047544, 20.322925848209742, 22.70561515204646, 24.480922661541676, 27.23477345925829, 28.831290583038445, 29.744408163505042]

>  <Cp_T_units>  (4) 
cal/(mol*K)

>  <T_list>  (4) 
[300.0, 400.0, 500.0, 600.0, 800.0, 1000.0, 1500.0, 2000.0, 2400.0]

>  <T_units>  (4) 
K

>  <yaml_path>  (4) 
/home/calvin/Dropbox/PersonalFolders/Calvin/HAb_Converged/rxn_1240/output/Species/rxn_1240_CtC[CH2]/rxn_1240_CtCCH2.yml

>  <frequencies_cm1>  (4) 
[355.94331707688, 407.51437683008004, 504.51054447508, 653.44172209524, 683.5053838262, 1024.2589293752399, 1075.37676809732, 1445.76135530216, 1997.3313501752, 3133.58394313432, 3230.4359040876, 3427.03082681388]

>  <ZPE_kJmol>  (4) 
107.29725110288972

>  <E_elec_kJmol>  (4) 
-304555.76281753613

>  <E0_minus_Eelec_plus_ZPE_kJmol>  (4) 
0.0

>  <rxn>  (4) 
rxn_1240

>  <species_type>  (4) 
p1

>  <species_folder>  (4) 
rxn_1240_CtC[CH2]

>  <frequencies_cm1_list>  (4) 
[355.94331707688, 407.51437683008004, 504.51054447508, 653.44172209524, 683.5053838262, 1024.2589293752399, 1075.37676809732, 1445.76135530216, 1997.3313501752, 3133.58394313432, 3230.4359040876, 3427.03082681388]

>  <E0_kJmol>  (4) 
-304448

>  <H298_kJmol>  (4) 
-304435

$$$$

     RDKit          3D

 12 11  0  0  0  0  0  0  0  0999 V2000
    2.7049    0.9350   -0.4404 S   0  0  0  0  0  1  0  0  0  1  0  0
    1.0313    1.0813   -0.4080 C   0  0  0  0  0  0  0  0  0  2  0  0
    0.1364    0.1019   -0.0473 C   0  0  0  0  0  0  0  0  0  3  0  0
    0.5360   -1.2679    0.3784 C   0  0  0  0  0  0  0  0  0  4  0  0
   -1.3304    0.3842   -0.0689 C   0  0  0  0  0  0  0  0  0  5  0  0
    0.6069    2.0398   -0.6990 H   0  0  0  0  0  0  0  0  0  6  0  0
    0.1578   -1.4699    1.3849 H   0  0  0  0  0  0  0  0  0  7  0  0
    0.0783   -2.0109   -0.2814 H   0  0  0  0  0  0  0  0  0  8  0  0
    1.6154   -1.3973    0.3689 H   0  0  0  0  0  0  0  0  0  9  0  0
   -1.8406   -0.3126   -0.7406 H   0  0  0  0  0  0  0  0  0 10  0  0
   -1.5514    1.4016   -0.3887 H   0  0  0  0  0  0  0  0  0 11  0  0
   -1.7610    0.2281    0.9247 H   0  0  0  0  0  0  0  0  0 12  0  0
  1  2  1  0
  2  6  1  0
  2  3  1  0
  3  4  1  0
  3  5  1  0
  4  8  1  0
  4  9  1  0
  4  7  1  0
  5 11  1  0
  5 12  1  0
  5 10  1  0
M  RAD  1   1   2
M  END
>  <rmg_smiles>  (5) 
[S][CH][C](C)C

>  <rmg_adjacency_list>  (5) 
multiplicity 2
1  S u1 p2 c0 {5,S}
2  C u0 p0 c0 {4,S} {6,S} {7,S} {8,S}
3  C u0 p0 c0 {4,S} {9,S} {10,S} {11,S}
4  C u0 p0 c0 {2,S} {3,S} {5,S}
5  C u0 p0 c0 {1,S} {4,S} {12,S}
6  H u0 p0 c0 {2,S}
7  H u0 p0 c0 {2,S}
8  H u0 p0 c0 {2,S}
9  H u0 p0 c0 {3,S}
10 H u0 p0 c0 {3,S}
11 H u0 p0 c0 {3,S}
12 H u0 p0 c0 {5,S}


>  <multiplicity>  (5) 
2

>  <reaction>  (5) 
rxn_1240

>  <type>  (5) 
r2

>  <role_mapnums>  (5) 
{}

>  <role_mapidx>  (5) 
{}

>  <ordered_mapped_smiles>  (5) 
[S:1][CH:2]([CH:3]([C:4]([H:7])([H:8])[H:9])[C:5]([H:10])([H:11])[H:12])[H:6]

>  <level_of_theory>  (5) 
wb97xd/def2tzvp

>  <lot_method>  (5) 
wb97xd

>  <lot_basis>  (5) 
def2tzvp

>  <spin_multiplicity>  (5) 
2.0

>  <optical_isomers>  (5) 
1.0

>  <modes>  (5) 
IdealGasTranslation(mass=(87.0269, 'amu')),         NonlinearRotor(             inertia = ([59.4375, 215.284, 268.526

>  <frequency_value>  (5) 
unknown

>  <frequency_units>  (5) 
unknown

>  <frequency_list>  (5) 
unknown

>  <arkane_path>  (5) 
/home/calvin/Dropbox/PersonalFolders/Calvin/HAb_Converged/rxn_1240/output/Species/rxn_1240_S=C[C][C]C/arkane/output.py

>  <path_exists>  (5) 
True

>  <E0_value>  (5) 
-1456389.4058014078

>  <E0_units>  (5) 
kJ/mol

>  <thermo_class>  (5) 
NASA

>  <Cp0_value>  (5) 
33.257888

>  <Cp0_units>  (5) 
J/(mol*K)

>  <CpInf_value>  (5) 
282.692048

>  <CpInf_units>  (5) 
J/(mol*K)

>  <Tmin_value>  (5) 
10.0

>  <Tmin_units>  (5) 
K

>  <Tmax_value>  (5) 
3000.0

>  <Tmax_units>  (5) 
K

>  <polynomials>  (5) 
[{"name": "polynomial1", "class": "NASAPolynomial", "Tmin_value": 10.0, "Tmin_units": "K", "Tmax_value": 1069.7138576217342, "Tmax_units": "K", "coeffs": [3.7450953721106606, 0.02804067236145847, 4.837339460243766e-06, -1.862188975324303e-08, 7.102529060370391e-12, -175163186.63125047, 11.115318698362758]}, {"name": "polynomial2", "class": "NASAPolynomial", "Tmin_value": 1069.7138576217342, "Tmin_units": "K", "Tmax_value": 3000.0, "Tmax_units": "K", "coeffs": [5.373134457780288, 0.03266246334031504, -1.6660938713927265e-05, 4.135396675163868e-09, -4.033155674080627e-13, -175164147.67857578, 0.2872181639058632]}]

>  <H298_value>  (5) 
-348080.71273541875

>  <H298_units>  (5) 
kcal/mol

>  <S298_value>  (5) 
81.22134376115285

>  <S298_units>  (5) 
cal/(mol*K)

>  <Cp_T_value_list>  (5) 
[24.139386474933982, 29.26233594997063, 33.96322362768302, 38.17244953856237, 45.00688648485055, 49.886328245020486, 57.22140468570403, 60.97629997735028, 62.76138759591628]

>  <Cp_T_units>  (5) 
cal/(mol*K)

>  <T_list>  (5) 
[300.0, 400.0, 500.0, 600.0, 800.0, 1000.0, 1500.0, 2000.0, 2400.0]

>  <T_units>  (5) 
K

>  <yaml_path>  (5) 
/home/calvin/Dropbox/PersonalFolders/Calvin/HAb_Converged/rxn_1240/output/Species/rxn_1240_S=C[C][C]C/rxn_1240_S=CCCC.yml

>  <frequencies_cm1>  (5) 
[87.46479202084001, 132.99290469244, 210.48683402863998, 250.26041300207999, 372.11506750548, 441.34801350172, 490.53622934888, 795.65012108712, 848.51217408048, 924.6601742939599, 952.54013469316, 965.5393379039199, 1058.3672454596801, 1073.62568684072, 1212.6752725854, 1351.19610046044, 1396.66927724948, 1403.6667352905597, 1418.3002810074797, 1452.5665377542798, 1454.3588209227999, 1474.34861518932, 1518.6063355767199, 3001.0991953555595, 3006.29063625748, 3055.78786644404, 3059.9835944745596, 3097.51166924836, 3108.51944671632, 3128.82512230756]

>  <ZPE_kJmol>  (5) 
255.66898791025585

>  <E_elec_kJmol>  (5) 
-1456645.074789318

>  <E0_minus_Eelec_plus_ZPE_kJmol>  (5) 
0.0

>  <rxn>  (5) 
rxn_1240

>  <species_type>  (5) 
r1

>  <species_folder>  (5) 
rxn_1240_S=C[C][C]C

>  <frequencies_cm1_list>  (5) 
[87.46479202084001, 132.99290469244, 210.48683402863998, 250.26041300207999, 372.11506750548, 441.34801350172, 490.53622934888, 795.65012108712, 848.51217408048, 924.6601742939599, 952.54013469316, 965.5393379039199, 1058.3672454596801, 1073.62568684072, 1212.6752725854, 1351.19610046044, 1396.66927724948, 1403.6667352905597, 1418.3002810074797, 1452.5665377542798, 1454.3588209227999, 1474.34861518932, 1518.6063355767199, 3001.0991953555595, 3006.29063625748, 3055.78786644404, 3059.9835944745596, 3097.51166924836, 3108.51944671632, 3128.82512230756]

>  <E0_kJmol>  (5) 
-1.45639e+06

>  <H298_kJmol>  (5) 
-1.45637e+06

$$$$
