
     RDKit          3D

  9  8  0  0  0  0  0  0  0  0999 V2000
    0.0241    0.9091    0.9149 C   0  0  0  0  0  0  0  0  0  1  0  0
   -0.0554   -0.4598    0.3032 C   0  0  0  0  0  0  0  0  0  2  0  0
    0.0023   -0.4583   -1.1026 O   0  0  0  0  0  0  0  0  0  3  0  0
   -0.8532    1.4584    0.5750 H   0  0  0  0  0  0  0  0  0  4  0  0
   -0.0765    0.9238    1.9991 H   0  0  0  0  0  0  0  0  0  5  0  0
    0.8505    1.5286    0.5670 H   0  0  0  0  0  0  0  0  0  6  0  0
   -1.0011   -0.9350    0.5674 H   0  0  0  0  0  0  0  0  0  7  0  0
    0.7460   -1.0820    0.7329 H   0  0  0  0  0  0  0  0  0  8  0  0
    0.8330   -0.0706   -1.3827 H   0  0  0  0  0  0  0  0  0  9  0  0
  1  5  1  0
  1  4  1  0
  1  6  1  0
  1  2  1  0
  2  7  1  0
  2  8  1  0
  2  3  1  0
  3  9  1  0
M  END
>  <rmg_smiles>  (1) 
CCO

>  <rmg_adjacency_list>  (1) 
1 O u0 p2 c0 {2,S} {9,S}
2 C u0 p0 c0 {1,S} {3,S} {4,S} {5,S}
3 C u0 p0 c0 {2,S} {6,S} {7,S} {8,S}
4 H u0 p0 c0 {2,S}
5 H u0 p0 c0 {2,S}
6 H u0 p0 c0 {3,S}
7 H u0 p0 c0 {3,S}
8 H u0 p0 c0 {3,S}
9 H u0 p0 c0 {1,S}


>  <multiplicity>  (1) 
1

>  <reaction>  (1) 
rxn_223

>  <type>  (1) 
r1h

>  <role_mapnums>  (1) 
{"r1h_a": 1, "r1h_h": 4}

>  <role_mapidx>  (1) 
{"r1h_a": 0, "r1h_h": 3}

>  <ordered_mapped_smiles>  (1) 
[C:1]([C:2]([O:3][H:9])([H:7])[H:8])([H:4])([H:5])[H:6]

>  <mol_properties>  (1) 
{"0": {"label": "donator", "atom_type": "Cs"}, "3": {"label": "d_hydrogen", "atom_type": "H0"}}

>  <level_of_theory>  (1) 
wb97xd/def2tzvp

>  <lot_method>  (1) 
wb97xd

>  <lot_basis>  (1) 
def2tzvp

>  <spin_multiplicity>  (1) 
1.0

>  <optical_isomers>  (1) 
2.0

>  <modes>  (1) 
IdealGasTranslation(mass=(46.0419, 'amu')),         NonlinearRotor(             inertia = ([14.5784, 54.5856, 61.8154

>  <frequency_value>  (1) 
unknown

>  <frequency_units>  (1) 
unknown

>  <frequency_list>  (1) 
unknown

>  <arkane_path>  (1) 
/home/calvin/Dropbox/PersonalFolders/Calvin/HAb_Converged/rxn_223/output/Species/rxn_223_CCO/arkane/output.py

>  <path_exists>  (1) 
True

>  <E0_value>  (1) 
-406893.32726899936

>  <E0_units>  (1) 
kJ/mol

>  <thermo_class>  (1) 
NASA

>  <Cp0_value>  (1) 
33.257888

>  <Cp0_units>  (1) 
J/(mol*K)

>  <CpInf_value>  (1) 
207.8618

>  <CpInf_units>  (1) 
J/(mol*K)

>  <Tmin_value>  (1) 
10.0

>  <Tmin_units>  (1) 
K

>  <Tmax_value>  (1) 
3000.0

>  <Tmax_units>  (1) 
K

>  <polynomials>  (1) 
[{"name": "polynomial1", "class": "NASAPolynomial", "Tmin_value": 10.0, "Tmin_units": "K", "Tmax_value": 551.325677530043, "Tmax_units": "K", "coeffs": [3.9713939904585835, 0.002395771773103738, 5.8090302361599226e-05, -8.561586731011488e-08, 4.035839426461114e-11, -48937962.79914841, 7.862489902658335]}, {"name": "polynomial2", "class": "NASAPolynomial", "Tmin_value": 551.325677530043, "Tmin_units": "K", "Tmax_value": 3000.0, "Tmax_units": "K", "coeffs": [0.19952229650478104, 0.029761909916141915, -1.6365986604791405e-05, 4.418173006167752e-09, -4.682195473340341e-13, -48937546.897832714, 23.81366453828344]}]

>  <H298_value>  (1) 
-97246.55405342489

>  <H298_units>  (1) 
kcal/mol

>  <S298_value>  (1) 
65.7874488470437

>  <S298_units>  (1) 
cal/(mol*K)

>  <Cp_T_value_list>  (1) 
[15.765557048137794, 19.430727237606316, 22.877261153441847, 25.95004973007039, 31.010636957793498, 34.866331087192144, 40.85674656492191, 43.94362794299649, 45.511889649103395]

>  <Cp_T_units>  (1) 
cal/(mol*K)

>  <T_list>  (1) 
[300.0, 400.0, 500.0, 600.0, 800.0, 1000.0, 1500.0, 2000.0, 2400.0]

>  <T_units>  (1) 
K

>  <yaml_path>  (1) 
/home/calvin/Dropbox/PersonalFolders/Calvin/HAb_Converged/rxn_223/output/Species/rxn_223_CCO/rxn_223_CCO.yml

>  <frequencies_cm1>  (1) 
[261.26819047004, 286.81337586044, 426.24064579772, 804.5016651646, 891.82911747904, 1059.86424825944, 1088.932197119, 1140.44145400432, 1273.9562495810799, 1364.90260315916, 1391.5053042888399, 1416.6247365893998, 1475.59153953224, 1480.8997191846001, 1506.73331795844, 2975.9454281283997, 3008.37133280944, 3061.6454049219997, 3084.9794210393593, 3098.7957955031998, 3839.53063498628]

>  <ZPE_kJmol>  (1) 
208.9839162086533

>  <E_elec_kJmol>  (1) 
-407102.311185208

>  <E0_minus_Eelec_plus_ZPE_kJmol>  (1) 
0.0

>  <rxn>  (1) 
rxn_223

>  <species_type>  (1) 
r0

>  <species_folder>  (1) 
rxn_223_CCO

>  <frequencies_cm1_list>  (1) 
[261.26819047004, 286.81337586044, 426.24064579772, 804.5016651646, 891.82911747904, 1059.86424825944, 1088.932197119, 1140.44145400432, 1273.9562495810799, 1364.90260315916, 1391.5053042888399, 1416.6247365893998, 1475.59153953224, 1480.8997191846001, 1506.73331795844, 2975.9454281283997, 3008.37133280944, 3061.6454049219997, 3084.9794210393593, 3098.7957955031998, 3839.53063498628]

>  <E0_kJmol>  (1) 
-406893

>  <H298_kJmol>  (1) 
-406880

$$$$

     RDKit          3D

  2  1  0  0  0  0  0  0  0  0999 V2000
    0.7392   -0.4223    0.2518 H   0  0  0  0  0  0  0  0  0  1  0  0
   -0.0601    0.0343   -0.0205 O   0  0  0  0  0  1  0  0  0  2  0  0
  1  2  1  0
M  RAD  1   2   2
M  END
>  <rmg_smiles>  (2) 
[OH]

>  <rmg_adjacency_list>  (2) 
multiplicity 2
1 H u0 p0 c0 {2,S}
2 O u1 p2 c0 {1,S}


>  <multiplicity>  (2) 
2

>  <reaction>  (2) 
rxn_223

>  <type>  (2) 
r2h

>  <role_mapnums>  (2) 
{"r2h_a": 2, "r2h_h": 1}

>  <role_mapidx>  (2) 
{"r2h_a": 1, "r2h_h": 0}

>  <ordered_mapped_smiles>  (2) 
[H:1][O:2]

>  <mol_properties>  (2) 
{"0": {"label": "a_hydrogen", "atom_type": "H0"}, "1": {"label": "acceptor", "atom_type": "O2s"}}

>  <level_of_theory>  (2) 
wb97xd/def2tzvp

>  <lot_method>  (2) 
wb97xd

>  <lot_basis>  (2) 
def2tzvp

>  <spin_multiplicity>  (2) 
2.0

>  <optical_isomers>  (2) 
1.0

>  <modes>  (2) 
IdealGasTranslation(mass=(17.0027, 'amu')),         LinearRotor(inertia=(0.893825, 'amu*angstrom^2'), symmetry=1),         HarmonicOscillator(frequencies=([3725.56

>  <frequency_value>  (2) 
unknown

>  <frequency_units>  (2) 
unknown

>  <frequency_list>  (2) 
unknown

>  <arkane_path>  (2) 
/home/calvin/Dropbox/PersonalFolders/Calvin/HAb_Converged/rxn_223/output/Species/rxn_223_[OH]/arkane/output.py

>  <path_exists>  (2) 
True

>  <E0_value>  (2) 
-198836.1106552763

>  <E0_units>  (2) 
kJ/mol

>  <thermo_class>  (2) 
NASA

>  <Cp0_value>  (2) 
29.100652

>  <Cp0_units>  (2) 
J/(mol*K)

>  <CpInf_value>  (2) 
37.415124

>  <CpInf_units>  (2) 
J/(mol*K)

>  <Tmin_value>  (2) 
10.0

>  <Tmin_units>  (2) 
K

>  <Tmax_value>  (2) 
3000.0

>  <Tmax_units>  (2) 
K

>  <polynomials>  (2) 
[{"name": "polynomial1", "class": "NASAPolynomial", "Tmin_value": 10.0, "Tmin_units": "K", "Tmax_value": 985.6459359324402, "Tmax_units": "K", "coeffs": [3.49686777077684, 0.00018334165413566602, -9.927422114975035e-07, 1.559335065614597e-09, -6.051175734082516e-13, -23914460.190001234, 1.4722271748407303]}, {"name": "polynomial2", "class": "NASAPolynomial", "Tmin_value": 985.6459359324402, "Tmin_units": "K", "Tmax_value": 3000.0, "Tmax_units": "K", "coeffs": [3.4538997471416084, -0.0002990851320361188, 7.409868333423891e-07, -2.8938793165350344e-10, 3.527321549332907e-14, -23914419.81566734, 1.8407453398243376]}]

>  <H298_value>  (2) 
-47520.89563584726

>  <H298_units>  (2) 
kcal/mol

>  <S298_value>  (2) 
42.56065351108258

>  <S298_units>  (2) 
cal/(mol*K)

>  <Cp_T_value_list>  (2) 
[6.95467440837288, 6.946622347988586, 6.950155535415497, 6.9708793647131895, 7.071890602250594, 7.236783548847422, 7.699190754845551, 8.085833580657471, 8.29452334304518]

>  <Cp_T_units>  (2) 
cal/(mol*K)

>  <T_list>  (2) 
[300.0, 400.0, 500.0, 600.0, 800.0, 1000.0, 1500.0, 2000.0, 2400.0]

>  <T_units>  (2) 
K

>  <yaml_path>  (2) 
/home/calvin/Dropbox/PersonalFolders/Calvin/HAb_Converged/rxn_223/output/Species/rxn_223_[OH]/rxn_223_OH.yml

>  <frequencies_cm1>  (2) 
[3725.55927963024]

>  <ZPE_kJmol>  (2) 
22.28379948603074

>  <E_elec_kJmol>  (2) 
-198858.39445476237

>  <E0_minus_Eelec_plus_ZPE_kJmol>  (2) 
0.0

>  <rxn>  (2) 
rxn_223

>  <species_type>  (2) 
p1

>  <species_folder>  (2) 
rxn_223_[OH]

>  <frequencies_cm1_list>  (2) 
[3725.55927963024]

>  <E0_kJmol>  (2) 
-198836

>  <H298_kJmol>  (2) 
-198827

$$$$

     RDKit          3D

 10  8  0  0  0  0  0  0  0  0999 V2000
    0.5498    0.3452    0.8858 C   0  0  0  0  0  3  0  0  0  1  0  0
    0.4703   -1.0237    0.2741 C   0  0  0  0  0  0  0  0  0  2  0  0
    0.5280   -1.0222   -1.1316 O   0  0  0  0  0  0  0  0  0  3  0  0
   -0.4889    0.9955    0.4834 H   0  0  0  0  0  0  0  0  0  4  0  0
    0.4492    0.3599    1.9700 H   0  0  0  0  0  0  0  0  0  5  0  0
    1.3762    0.9647    0.5379 H   0  0  0  0  0  0  0  0  0  6  0  0
   -0.4754   -1.4989    0.5383 H   0  0  0  0  0  0  0  0  0  7  0  0
    1.2717   -1.6459    0.7038 H   0  0  0  0  0  0  0  0  0  8  0  0
    1.3586   -0.6345   -1.4118 H   0  0  0  0  0  0  0  0  0  9  0  0
   -1.5032    1.5749    0.1380 O   0  0  0  0  0  1  0  0  0 10  0  0
  1  5  1  0
  1  6  1  0
  1  2  1  0
  2  7  1  0
  2  8  1  0
  2  3  1  0
  3  9  1  0
  4 10  1  0
M  RAD  2   1   2  10   2
M  END
>  <rmg_smiles>  (3) 
[CH2]CO.[OH]

>  <rmg_adjacency_list>  (3) 
multiplicity 3
1  O u0 p2 c0 {3,S} {9,S}
2  O u1 p2 c0 {10,S}
3  C u0 p0 c0 {1,S} {4,S} {5,S} {6,S}
4  C u1 p0 c0 {3,S} {7,S} {8,S}
5  H u0 p0 c0 {3,S}
6  H u0 p0 c0 {3,S}
7  H u0 p0 c0 {4,S}
8  H u0 p0 c0 {4,S}
9  H u0 p0 c0 {1,S}
10 H u0 p0 c0 {2,S}


>  <multiplicity>  (3) 
3

>  <reaction>  (3) 
rxn_223

>  <type>  (3) 
ts

>  <role_mapnums>  (3) 
{"*2": 4, "*1": 1, "*3": 10, "*0": null, "*4": 2}

>  <role_mapidx>  (3) 
{"*2": 3, "*1": 0, "*3": 9, "*4": 1}

>  <ordered_mapped_smiles>  (3) 
[C:1]([C:2]([O:3][H:9])([H:7])[H:8])([H:5])[H:6].[H:4][O:10]

>  <mol_properties>  (3) 
{"0": {"label": "*1", "atom_type": "Cs"}, "1": {"label": "*4", "atom_type": "Cs"}, "3": {"label": "*2", "atom_type": "H0"}, "9": {"label": "*3", "atom_type": "O2s"}}

>  <level_of_theory>  (3) 
wb97xd/def2tzvp

>  <lot_method>  (3) 
wb97xd

>  <lot_basis>  (3) 
def2tzvp

>  <spin_multiplicity>  (3) 
3.0

>  <optical_isomers>  (3) 
2.0

>  <modes>  (3) 
IdealGasTranslation(mass=(62.0368, 'amu')),         NonlinearRotor(             inertia = ([45.588, 132.31, 160.365

>  <frequency_value>  (3) 
-1536.82

>  <frequency_units>  (3) 
cm^-1

>  <frequency_list>  (3) 
unknown

>  <arkane_path>  (3) 
/home/calvin/Dropbox/PersonalFolders/Calvin/HAb_Converged/rxn_223/output/rxns/TS0/arkane/output.py

>  <path_exists>  (3) 
True

>  <E0_value>  (3) 
-603973.0

>  <E0_units>  (3) 
kJ/mol

>  <thermo_class>  (3) 
unknown

>  <Cp0_value>  (3) 
unknown

>  <Cp0_units>  (3) 
unknown

>  <CpInf_value>  (3) 
unknown

>  <CpInf_units>  (3) 
unknown

>  <Tmin_value>  (3) 
unknown

>  <Tmin_units>  (3) 
unknown

>  <Tmax_value>  (3) 
unknown

>  <Tmax_units>  (3) 
unknown

>  <polynomials>  (3) 
unknown

>  <H298_value>  (3) 
unknown

>  <H298_units>  (3) 
unknown

>  <S298_value>  (3) 
unknown

>  <S298_units>  (3) 
unknown

>  <Cp_T_value_list>  (3) 
unknown

>  <Cp_T_units>  (3) 
unknown

>  <T_list>  (3) 
unknown

>  <T_units>  (3) 
unknown

>  <yaml_path>  (3) 
unknown

>  <frequencies_cm1>  (3) 
unknown

>  <ZPE_kJmol>  (3) 
unknown

>  <E_elec_kJmol>  (3) 
unknown

>  <E0_minus_Eelec_plus_ZPE_kJmol>  (3) 
unknown

>  <rxn>  (3) 
unknown

>  <species_type>  (3) 
unknown

>  <species_folder>  (3) 
unknown

>  <frequencies_cm1_list>  (3) 
[]

>  <ts_imag_freq_cm1>  (3) 
-1555.4892

>  <ts_freq_out_path>  (3) 
/home/calvin/Dropbox/PersonalFolders/Calvin/HAb_Converged/rxn_223/output/rxns/TS0/geometry/freq.out

>  <E0_kJmol>  (3) 
-603973

>  <H298_kJmol>  (3) 
unknown

$$$$

     RDKit          3D

  8  7  0  0  0  0  0  0  0  0999 V2000
    0.9383    0.2996   -0.2216 C   0  0  0  0  0  3  0  0  0  1  0  0
   -0.2599   -0.3612    0.3424 C   0  0  0  0  0  0  0  0  0  2  0  0
   -1.4623    0.3337    0.0690 O   0  0  0  0  0  0  0  0  0  3  0  0
    1.8278   -0.2698   -0.4548 H   0  0  0  0  0  0  0  0  0  4  0  0
    0.9841    1.3806   -0.2544 H   0  0  0  0  0  0  0  0  0  5  0  0
   -0.3172   -1.4027   -0.0032 H   0  0  0  0  0  0  0  0  0  6  0  0
   -0.1994   -0.4050    1.4381 H   0  0  0  0  0  0  0  0  0  7  0  0
   -1.5169    0.4672   -0.8790 H   0  0  0  0  0  0  0  0  0  8  0  0
  1  5  1  0
  1  4  1  0
  1  2  1  0
  2  7  1  0
  2  3  1  0
  2  6  1  0
  3  8  1  0
M  RAD  1   1   2
M  END
>  <rmg_smiles>  (4) 
[CH2]CO

>  <rmg_adjacency_list>  (4) 
multiplicity 2
1 O u0 p2 c0 {2,S} {8,S}
2 C u0 p0 c0 {1,S} {3,S} {4,S} {5,S}
3 C u1 p0 c0 {2,S} {6,S} {7,S}
4 H u0 p0 c0 {2,S}
5 H u0 p0 c0 {2,S}
6 H u0 p0 c0 {3,S}
7 H u0 p0 c0 {3,S}
8 H u0 p0 c0 {1,S}


>  <multiplicity>  (4) 
2

>  <reaction>  (4) 
rxn_223

>  <type>  (4) 
r1

>  <role_mapnums>  (4) 
{}

>  <role_mapidx>  (4) 
{}

>  <ordered_mapped_smiles>  (4) 
[C:1]([C:2]([O:3][H:8])([H:6])[H:7])([H:4])[H:5]

>  <level_of_theory>  (4) 
wb97xd/def2tzvp

>  <lot_method>  (4) 
wb97xd

>  <lot_basis>  (4) 
def2tzvp

>  <spin_multiplicity>  (4) 
2.0

>  <optical_isomers>  (4) 
2.0

>  <modes>  (4) 
IdealGasTranslation(mass=(45.034, 'amu')),         NonlinearRotor(             inertia = ([12.9684, 50.7519, 58.6402

>  <frequency_value>  (4) 
unknown

>  <frequency_units>  (4) 
unknown

>  <frequency_list>  (4) 
unknown

>  <arkane_path>  (4) 
/home/calvin/Dropbox/PersonalFolders/Calvin/HAb_Converged/rxn_223/output/Species/rxn_223_[CH2]CO/arkane/output.py

>  <path_exists>  (4) 
True

>  <E0_value>  (4) 
-405160.2801959009

>  <E0_units>  (4) 
kJ/mol

>  <thermo_class>  (4) 
NASA

>  <Cp0_value>  (4) 
33.257888

>  <Cp0_units>  (4) 
J/(mol*K)

>  <CpInf_value>  (4) 
182.918384

>  <CpInf_units>  (4) 
J/(mol*K)

>  <Tmin_value>  (4) 
10.0

>  <Tmin_units>  (4) 
K

>  <Tmax_value>  (4) 
3000.0

>  <Tmax_units>  (4) 
K

>  <polynomials>  (4) 
[{"name": "polynomial1", "class": "NASAPolynomial", "Tmin_value": 10.0, "Tmin_units": "K", "Tmax_value": 432.3766189597217, "Tmax_units": "K", "coeffs": [3.9682859409196487, 0.0021271682260061452, 8.113714060182865e-05, -1.697222274090438e-07, 1.1543053931524524e-10, -48729525.72794912, 8.402196039567956]}, {"name": "polynomial2", "class": "NASAPolynomial", "Tmin_value": 432.3766189597217, "Tmin_units": "K", "Tmax_value": 3000.0, "Tmax_units": "K", "coeffs": [2.062791178303523, 0.0247176540528093, -1.4449213941226532e-05, 4.203067046613039e-09, -4.807179225573885e-13, -48729407.335443355, 15.461024244471373]}]

>  <H298_value>  (4) 
-96832.22748875976

>  <H298_units>  (4) 
kcal/mol

>  <S298_value>  (4) 
67.5190407774435

>  <S298_units>  (4) 
cal/(mol*K)

>  <Cp_T_value_list>  (4) 
[16.416842080191024, 19.66121242384569, 22.46468038984529, 24.91406104608334, 28.902896665175646, 31.90177936220571, 36.52536756908607, 39.01739495160354, 40.363781760782146]

>  <Cp_T_units>  (4) 
cal/(mol*K)

>  <T_list>  (4) 
[300.0, 400.0, 500.0, 600.0, 800.0, 1000.0, 1500.0, 2000.0, 2400.0]

>  <T_units>  (4) 
K

>  <yaml_path>  (4) 
/home/calvin/Dropbox/PersonalFolders/Calvin/HAb_Converged/rxn_223/output/Species/rxn_223_[CH2]CO/rxn_223_CH2CO.yml

>  <frequencies_cm1>  (4) 
[207.47222747316, 325.43330130012004, 428.45868205608, 525.37244587724, 830.8022189401999, 950.9675950548799, 1100.2764568676398, 1120.35552194332, 1173.6707959678001, 1354.9592084158, 1391.16882200816, 1441.7098339633599, 1471.91083540072, 2956.1410424655196, 2981.25360778076, 3124.12123736336, 3233.9449335861195, 3835.0464935723203]

>  <ZPE_kJmol>  (4) 
170.1871728318145

>  <E_elec_kJmol>  (4) 
-405330.4673687327

>  <E0_minus_Eelec_plus_ZPE_kJmol>  (4) 
0.0

>  <rxn>  (4) 
rxn_223

>  <species_type>  (4) 
p0

>  <species_folder>  (4) 
rxn_223_[CH2]CO

>  <frequencies_cm1_list>  (4) 
[207.47222747316, 325.43330130012004, 428.45868205608, 525.37244587724, 830.8022189401999, 950.9675950548799, 1100.2764568676398, 1120.35552194332, 1173.6707959678001, 1354.9592084158, 1391.16882200816, 1441.7098339633599, 1471.91083540072, 2956.1410424655196, 2981.25360778076, 3124.12123736336, 3233.9449335861195, 3835.0464935723203]

>  <E0_kJmol>  (4) 
-405160

>  <H298_kJmol>  (4) 
-405146

$$$$

     RDKit          3D

  1  0  0  0  0  0  0  0  0  0999 V2000
    0.0000    0.0000    0.0000 O   0  0  0  0  0 15  0  0  0  1  0  0
M  END
>  <rmg_smiles>  (5) 
[O]

>  <rmg_adjacency_list>  (5) 
multiplicity 3
1 O u2 p3 c0


>  <multiplicity>  (5) 
3

>  <reaction>  (5) 
rxn_223

>  <type>  (5) 
r2

>  <role_mapnums>  (5) 
{}

>  <role_mapidx>  (5) 
{}

>  <ordered_mapped_smiles>  (5) 
[O:1]

>  <level_of_theory>  (5) 
wb97xd/def2tzvp

>  <lot_method>  (5) 
wb97xd

>  <lot_basis>  (5) 
def2tzvp

>  <spin_multiplicity>  (5) 
3.0

>  <optical_isomers>  (5) 
1.0

>  <modes>  (5) 
IdealGasTranslation(mass=(15.9994, 'amu')),

>  <frequency_value>  (5) 
unknown

>  <frequency_units>  (5) 
unknown

>  <frequency_list>  (5) 
unknown

>  <arkane_path>  (5) 
/home/calvin/Dropbox/PersonalFolders/Calvin/HAb_Converged/rxn_223/output/Species/rxn_223_[O]/arkane/output.py

>  <path_exists>  (5) 
True

>  <E0_value>  (5) 
-197098.59938458708

>  <E0_units>  (5) 
kJ/mol

>  <thermo_class>  (5) 
NASA

>  <Cp0_value>  (5) 
20.78618

>  <Cp0_units>  (5) 
J/(mol*K)

>  <CpInf_value>  (5) 
20.78618

>  <CpInf_units>  (5) 
J/(mol*K)

>  <Tmin_value>  (5) 
10.0

>  <Tmin_units>  (5) 
K

>  <Tmax_value>  (5) 
3000.0

>  <Tmax_units>  (5) 
K

>  <polynomials>  (5) 
[{"name": "polynomial1", "class": "NASAPolynomial", "Tmin_value": 10.0, "Tmin_units": "K", "Tmax_value": 1853.5663026740365, "Tmax_units": "K", "coeffs": [2.500000000000126, -2.814048095438137e-15, 9.047587538332909e-18, -8.591944598242694e-21, 2.4182720553650057e-24, -23705485.977386568, 4.091313385047355]}, {"name": "polynomial2", "class": "NASAPolynomial", "Tmin_value": 1853.5663026740365, "Tmin_units": "K", "Tmax_value": 3000.0, "Tmax_units": "K", "coeffs": [2.500000000696122, -1.3129776766613561e-12, 9.140875080033424e-16, -2.782806647322001e-19, 3.1263265306749967e-23, -23705485.97738686, 4.091313381171202]}]

>  <H298_value>  (5) 
-47106.215373741215

>  <H298_units>  (5) 
kcal/mol

>  <S298_value>  (5) 
36.4335375885593

>  <S298_units>  (5) 
cal/(mol*K)

>  <Cp_T_value_list>  (5) 
[4.968016252389826, 4.968016252389978, 4.968016252390173, 4.96801625239036, 4.968016252390567, 4.968016252390427, 4.968016252389077, 4.968016252391019, 4.968016252390868]

>  <Cp_T_units>  (5) 
cal/(mol*K)

>  <T_list>  (5) 
[300.0, 400.0, 500.0, 600.0, 800.0, 1000.0, 1500.0, 2000.0, 2400.0]

>  <T_units>  (5) 
K

>  <yaml_path>  (5) 
/home/calvin/Dropbox/PersonalFolders/Calvin/HAb_Converged/rxn_223/output/Species/rxn_223_[O]/rxn_223_O.yml

>  <frequencies_cm1>  (5) 
[]

>  <ZPE_kJmol>  (5) 
unknown

>  <E_elec_kJmol>  (5) 
unknown

>  <E0_minus_Eelec_plus_ZPE_kJmol>  (5) 
unknown

>  <rxn>  (5) 
rxn_223

>  <species_type>  (5) 
r1

>  <species_folder>  (5) 
rxn_223_[O]

>  <frequencies_cm1_list>  (5) 
[]

>  <E0_kJmol>  (5) 
-197099

>  <H298_kJmol>  (5) 
-197092

$$$$
