
     RDKit          3D

  7  6  0  0  0  0  0  0  0  0999 V2000
    0.0617    0.3839   -1.2881 C   0  0  0  0  0  2  0  0  0  1  0  0
    0.0033   -0.0133   -0.1512 C   0  0  0  0  0  2  0  0  0  2  0  0
   -0.0573   -0.3712    1.2075 C   0  0  0  0  0  0  0  0  0  3  0  0
    0.1171    0.6887   -2.3058 H   0  0  0  0  0  0  0  0  0  4  0  0
   -0.0517    0.5949    1.7024 H   0  0  0  0  0  0  0  0  0  5  0  0
    0.8379   -0.8080    1.6393 H   0  0  0  0  0  0  0  0  0  6  0  0
   -0.9965   -0.7811    1.5652 H   0  0  0  0  0  0  0  0  0  7  0  0
  1  4  1  0
  1  2  1  0
  2  3  1  0
  3  6  1  0
  3  7  1  0
  3  5  1  0
M  RAD  2   1   3   2   3
M  END
>  <rmg_smiles>  (1) 
[CH][C]C

>  <rmg_adjacency_list>  (1) 
1 C u0 p0 c0 {2,S} {4,S} {5,S} {6,S}
2 C u0 p1 c0 {1,S} {3,S}
3 C u0 p1 c0 {2,S} {7,S}
4 H u0 p0 c0 {1,S}
5 H u0 p0 c0 {1,S}
6 H u0 p0 c0 {1,S}
7 H u0 p0 c0 {3,S}


>  <multiplicity>  (1) 
1

>  <reaction>  (1) 
rxn_1246

>  <type>  (1) 
r1h

>  <role_mapnums>  (1) 
{"r1h_a": 3, "r1h_h": 5}

>  <role_mapidx>  (1) 
{"r1h_a": 2, "r1h_h": 4}

>  <ordered_mapped_smiles>  (1) 
[C:1]([C:2][C:3]([H:5])([H:6])[H:7])[H:4]

>  <mol_properties>  (1) 
{"2": {"label": "donator", "atom_type": "Cs"}, "4": {"label": "d_hydrogen", "atom_type": "H0"}}

>  <level_of_theory>  (1) 
wb97xd/def2tzvp

>  <lot_method>  (1) 
wb97xd

>  <lot_basis>  (1) 
def2tzvp

>  <spin_multiplicity>  (1) 
1.0

>  <optical_isomers>  (1) 
1.0

>  <modes>  (1) 
IdealGasTranslation(mass=(40.0313, 'amu')),         NonlinearRotor(             inertia = ([3.14896, 58.5627, 58.5628

>  <frequency_value>  (1) 
unknown

>  <frequency_units>  (1) 
unknown

>  <frequency_list>  (1) 
unknown

>  <arkane_path>  (1) 
/home/calvin/Dropbox/PersonalFolders/Calvin/HAb_Converged/rxn_1246/output/Species/rxn_1246_CtCC/arkane/output.py

>  <path_exists>  (1) 
True

>  <E0_value>  (1) 
-306134.23771519226

>  <E0_units>  (1) 
kJ/mol

>  <thermo_class>  (1) 
NASA

>  <Cp0_value>  (1) 
33.257888

>  <Cp0_units>  (1) 
J/(mol*K)

>  <CpInf_value>  (1) 
157.97496800000002

>  <CpInf_units>  (1) 
J/(mol*K)

>  <Tmin_value>  (1) 
10.0

>  <Tmin_units>  (1) 
K

>  <Tmax_value>  (1) 
3000.0

>  <Tmax_units>  (1) 
K

>  <polynomials>  (1) 
[{"name": "polynomial1", "class": "NASAPolynomial", "Tmin_value": 10.0, "Tmin_units": "K", "Tmax_value": 432.7570457536586, "Tmax_units": "K", "coeffs": [3.9797872721783007, 0.0012495811779551272, 5.6294196303513694e-05, -1.0182025216581548e-07, 6.043505350989284e-11, -36819443.321551986, 4.877022759632036]}, {"name": "polynomial2", "class": "NASAPolynomial", "Tmin_value": 432.7570457536586, "Tmin_units": "K", "Tmax_value": 3000.0, "Tmax_units": "K", "coeffs": [1.8482488679261548, 0.020955787311649748, -1.2025217015703147e-05, 3.449280939574018e-09, -3.914023780269935e-13, -36819258.87384146, 13.374670545299223]}]

>  <H298_value>  (1) 
-73164.72574977479

>  <H298_units>  (1) 
kcal/mol

>  <S298_value>  (1) 
58.90709306772092

>  <S298_units>  (1) 
cal/(mol*K)

>  <Cp_T_value_list>  (1) 
[14.231411982223385, 16.92569828262598, 19.32863505161705, 21.43592113918368, 24.884700514699873, 27.496375671717598, 31.566855118352027, 33.76415845868588, 34.923080757091356]

>  <Cp_T_units>  (1) 
cal/(mol*K)

>  <T_list>  (1) 
[300.0, 400.0, 500.0, 600.0, 800.0, 1000.0, 1500.0, 2000.0, 2400.0]

>  <T_units>  (1) 
K

>  <yaml_path>  (1) 
/home/calvin/Dropbox/PersonalFolders/Calvin/HAb_Converged/rxn_1246/output/Species/rxn_1246_CtCC/rxn_1246_CtCC.yml

>  <frequencies_cm1>  (1) 
[351.89179573808, 352.26261294536, 684.0272747105199, 684.34315603524, 939.24565111364, 1048.18350623012, 1048.35518086312, 1402.57488462468, 1465.46960317056, 1465.7648835393202, 2230.0054137727598, 3022.8812727906, 3095.33483490192, 3095.7125190945194, 3438.9862482559997]

>  <ZPE_kJmol>  (1) 
145.49608455161717

>  <E_elec_kJmol>  (1) 
-306279.7337997439

>  <E0_minus_Eelec_plus_ZPE_kJmol>  (1) 
0.0

>  <rxn>  (1) 
rxn_1246

>  <species_type>  (1) 
r0

>  <species_folder>  (1) 
rxn_1246_CtCC

>  <frequencies_cm1_list>  (1) 
[351.89179573808, 352.26261294536, 684.0272747105199, 684.34315603524, 939.24565111364, 1048.18350623012, 1048.35518086312, 1402.57488462468, 1465.46960317056, 1465.7648835393202, 2230.0054137727598, 3022.8812727906, 3095.33483490192, 3095.7125190945194, 3438.9862482559997]

>  <E0_kJmol>  (1) 
-306134

>  <H298_kJmol>  (1) 
-306121

$$$$

     RDKit          3D

  8  7  0  0  0  0  0  0  0  0999 V2000
   -0.5566   -1.4449   -0.2915 H   0  0  0  0  0  0  0  0  0  1  0  0
   -2.0548    0.3162   -0.5330 S   0  0  0  0  0  0  0  0  0  2  0  0
   -0.5829   -0.4426    0.1308 C   0  0  0  0  0  0  0  0  0  3  0  0
    0.7174    0.1137   -0.2137 C   0  0  0  0  0  0  0  0  0  4  0  0
    2.0747   -0.1479    0.6316 S   0  0  0  0  0  0  0  0  0  5  0  0
   -1.7275    0.1636   -1.8255 H   0  0  0  0  0  0  0  0  0  6  0  0
   -0.7084   -0.6541    1.1905 H   0  0  0  0  0  0  0  0  0  7  0  0
    0.7547    0.6839   -1.1420 H   0  0  0  0  0  0  0  0  0  8  0  0
  1  3  1  0
  2  3  1  0
  2  6  1  0
  3  4  1  0
  3  7  1  0
  4  8  1  0
  4  5  1  0
M  END
>  <rmg_smiles>  (2) 
[S][CH]CS

>  <rmg_adjacency_list>  (2) 
1 S u0 p2 c0 {3,S} {8,S}
2 S u0 p2 c0 {4,S}
3 C u0 p0 c0 {1,S} {4,S} {5,S} {6,S}
4 C u0 p0 c0 {2,S} {3,S} {7,S}
5 H u0 p0 c0 {3,S}
6 H u0 p0 c0 {3,S}
7 H u0 p0 c0 {4,S}
8 H u0 p0 c0 {1,S}


>  <multiplicity>  (2) 
1

>  <reaction>  (2) 
rxn_1246

>  <type>  (2) 
r2h

>  <role_mapnums>  (2) 
{"r2h_a": 3, "r2h_h": 1}

>  <role_mapidx>  (2) 
{"r2h_a": 2, "r2h_h": 0}

>  <ordered_mapped_smiles>  (2) 
[H:1][C:3]([S:2][H:6])([CH:4]([SH:5])[H:8])[H:7]

>  <mol_properties>  (2) 
{"0": {"label": "a_hydrogen", "atom_type": "H0"}, "2": {"label": "acceptor", "atom_type": "Cs"}}

>  <level_of_theory>  (2) 
wb97xd/def2tzvp

>  <lot_method>  (2) 
wb97xd

>  <lot_basis>  (2) 
def2tzvp

>  <spin_multiplicity>  (2) 
1.0

>  <optical_isomers>  (2) 
2.0

>  <modes>  (2) 
IdealGasTranslation(mass=(91.9754, 'amu')),         NonlinearRotor(             inertia = ([28.3667, 272.927, 283.105

>  <frequency_value>  (2) 
unknown

>  <frequency_units>  (2) 
unknown

>  <frequency_list>  (2) 
unknown

>  <arkane_path>  (2) 
/home/calvin/Dropbox/PersonalFolders/Calvin/HAb_Converged/rxn_1246/output/Species/rxn_1246_SCC=S/arkane/output.py

>  <path_exists>  (2) 
True

>  <E0_value>  (2) 
-2297161.3466777904

>  <E0_units>  (2) 
kJ/mol

>  <thermo_class>  (2) 
NASA

>  <Cp0_value>  (2) 
33.257888

>  <Cp0_units>  (2) 
J/(mol*K)

>  <CpInf_value>  (2) 
182.918384

>  <CpInf_units>  (2) 
J/(mol*K)

>  <Tmin_value>  (2) 
10.0

>  <Tmin_units>  (2) 
K

>  <Tmax_value>  (2) 
3000.0

>  <Tmax_units>  (2) 
K

>  <polynomials>  (2) 
[{"name": "polynomial1", "class": "NASAPolynomial", "Tmin_value": 10.0, "Tmin_units": "K", "Tmax_value": 567.3985410848345, "Tmax_units": "K", "coeffs": [3.827762255477858, 0.0148243677948894, 3.0300423651881606e-05, -6.991525360518275e-08, 4.130808720690426e-11, -276284690.67862564, 11.183445317954005]}, {"name": "polynomial2", "class": "NASAPolynomial", "Tmin_value": 567.3985410848345, "Tmin_units": "K", "Tmax_value": 3000.0, "Tmax_units": "K", "coeffs": [3.2084105787689583, 0.02574254947061171, -1.5884331254161568e-05, 4.70098747996834e-09, -5.353239956477021e-13, -276284725.86150384, 12.891088264548623]}]

>  <H298_value>  (2) 
-549030.8628187295

>  <H298_units>  (2) 
kcal/mol

>  <S298_value>  (2) 
75.94771372042368

>  <S298_units>  (2) 
cal/(mol*K)

>  <Cp_T_value_list>  (2) 
[18.77710306271184, 22.233836008986053, 25.15286918611867, 27.585638185889195, 31.445784266887134, 34.24412324427564, 38.230364497139824, 40.139386212339545, 41.179820759380895]

>  <Cp_T_units>  (2) 
cal/(mol*K)

>  <T_list>  (2) 
[300.0, 400.0, 500.0, 600.0, 800.0, 1000.0, 1500.0, 2000.0, 2400.0]

>  <T_units>  (2) 
K

>  <yaml_path>  (2) 
/home/calvin/Dropbox/PersonalFolders/Calvin/HAb_Converged/rxn_1246/output/Species/rxn_1246_SCC=S/rxn_1246_SCC=S.yml

>  <frequencies_cm1>  (2) 
[80.75574736319999, 266.2330208564, 305.26496541528, 376.90135627352, 683.70452640048, 787.8972946608399, 844.3027120793199, 953.5015126379599, 1032.3482380822, 1160.69906069832, 1182.2888625443998, 1236.400706866, 1388.44949582144, 1449.3115867126, 2698.0591331839596, 3041.5869408022795, 3077.6798156442, 3121.4774480151596]

>  <ZPE_kJmol>  (2) 
141.6789408228882

>  <E_elec_kJmol>  (2) 
-2297303.025618613

>  <E0_minus_Eelec_plus_ZPE_kJmol>  (2) 
0.0

>  <rxn>  (2) 
rxn_1246

>  <species_type>  (2) 
p0

>  <species_folder>  (2) 
rxn_1246_SCC=S

>  <frequencies_cm1_list>  (2) 
[80.75574736319999, 266.2330208564, 305.26496541528, 376.90135627352, 683.70452640048, 787.8972946608399, 844.3027120793199, 953.5015126379599, 1032.3482380822, 1160.69906069832, 1182.2888625443998, 1236.400706866, 1388.44949582144, 1449.3115867126, 2698.0591331839596, 3041.5869408022795, 3077.6798156442, 3121.4774480151596]

>  <E0_kJmol>  (2) 
-2.29716e+06

>  <H298_kJmol>  (2) 
-2.29715e+06

$$$$

     RDKit          3D

 14 12  0  0  0  0  0  0  0  0999 V2000
   -0.3559   -1.5144   -2.5178 C   0  0  0  0  0  0  0  0  0  1  0  0
   -0.4143   -1.9116   -1.3809 C   0  0  0  0  0  0  0  0  0  2  0  0
   -0.4749   -2.2695   -0.0222 C   0  0  0  0  0  3  0  0  0  3  0  0
   -0.3005   -1.2096   -3.5354 H   0  0  0  0  0  0  0  0  0  4  0  0
   -0.4675   -0.9917    0.6324 H   0  0  0  0  0  0  0  0  0  5  0  0
    0.4204   -2.7063    0.4096 H   0  0  0  0  0  0  0  0  0  6  0  0
   -1.4141   -2.6794    0.3356 H   0  0  0  0  0  0  0  0  0  7  0  0
   -1.9701    0.9392    0.4625 S   0  0  0  0  0  0  0  0  0  8  0  0
   -0.4982    0.1804    1.1262 C   0  0  0  0  0  0  0  0  0  9  0  0
    0.8021    0.7367    0.7818 C   0  0  0  0  0  0  0  0  0 10  0  0
    2.1594    0.4751    1.6270 S   0  0  0  0  0  0  0  0  0 11  0  0
   -1.6428    0.7866   -0.8300 H   0  0  0  0  0  0  0  0  0 12  0  0
   -0.6237   -0.0311    2.1859 H   0  0  0  0  0  0  0  0  0 13  0  0
    0.8394    1.3069   -0.1465 H   0  0  0  0  0  0  0  0  0 14  0  0
  1  4  1  0
  1  2  1  0
  2  3  1  0
  3  6  1  0
  3  7  1  0
  5  9  1  0
  8  9  1  0
  8 12  1  0
  9 10  1  0
  9 13  1  0
 10 11  1  0
 10 14  1  0
M  RAD  1   3   2
M  END
>  <rmg_smiles>  (3) 
[S][CH]CS.[CH][C][CH2]

>  <rmg_adjacency_list>  (3) 
multiplicity 2
1  S u0 p2 c0 {3,S} {13,S}
2  S u0 p2 c0 {4,S}
3  C u0 p0 c0 {1,S} {4,S} {8,S} {9,S}
4  C u0 p0 c0 {2,S} {3,S} {10,S}
5  C u1 p0 c0 {6,S} {11,S} {12,S}
6  C u0 p1 c0 {5,S} {7,S}
7  C u0 p1 c0 {6,S} {14,S}
8  H u0 p0 c0 {3,S}
9  H u0 p0 c0 {3,S}
10 H u0 p0 c0 {4,S}
11 H u0 p0 c0 {5,S}
12 H u0 p0 c0 {5,S}
13 H u0 p0 c0 {1,S}
14 H u0 p0 c0 {7,S}


>  <multiplicity>  (3) 
2

>  <reaction>  (3) 
rxn_1246

>  <type>  (3) 
ts

>  <role_mapnums>  (3) 
{"*2": 5, "*1": 3, "*3": 9, "*0": 10, "*4": 2}

>  <role_mapidx>  (3) 
{"*2": 4, "*1": 2, "*3": 8, "*0": 9, "*4": 1}

>  <ordered_mapped_smiles>  (3) 
[CH2:1]([CH2:2][C:3]([H:6])[H:7])[H:4].[H:5][C:9]([S:8][H:12])([CH:10]([SH:11])[H:14])[H:13]

>  <mol_properties>  (3) 
{"1": {"label": "*4", "atom_type": "C2s"}, "2": {"label": "*1", "atom_type": "Cs"}, "4": {"label": "*2", "atom_type": "H0"}, "8": {"label": "*3", "atom_type": "Cs"}, "9": {"label": "*0", "atom_type": "Cs"}}

>  <level_of_theory>  (3) 
wb97xd/def2tzvp

>  <lot_method>  (3) 
wb97xd

>  <lot_basis>  (3) 
def2tzvp

>  <spin_multiplicity>  (3) 
2.0

>  <optical_isomers>  (3) 
2.0

>  <modes>  (3) 
IdealGasTranslation(mass=(130.999, 'amu')),         NonlinearRotor(             inertia = ([297.756, 463.787, 652.498

>  <frequency_value>  (3) 
-1686.96

>  <frequency_units>  (3) 
cm^-1

>  <frequency_list>  (3) 
unknown

>  <arkane_path>  (3) 
/home/calvin/Dropbox/PersonalFolders/Calvin/HAb_Converged/rxn_1246/output/rxns/TS0/arkane/output.py

>  <path_exists>  (3) 
True

>  <E0_value>  (3) 
-2601560.0

>  <E0_units>  (3) 
kJ/mol

>  <thermo_class>  (3) 
unknown

>  <Cp0_value>  (3) 
unknown

>  <Cp0_units>  (3) 
unknown

>  <CpInf_value>  (3) 
unknown

>  <CpInf_units>  (3) 
unknown

>  <Tmin_value>  (3) 
unknown

>  <Tmin_units>  (3) 
unknown

>  <Tmax_value>  (3) 
unknown

>  <Tmax_units>  (3) 
unknown

>  <polynomials>  (3) 
unknown

>  <H298_value>  (3) 
unknown

>  <H298_units>  (3) 
unknown

>  <S298_value>  (3) 
unknown

>  <S298_units>  (3) 
unknown

>  <Cp_T_value_list>  (3) 
unknown

>  <Cp_T_units>  (3) 
unknown

>  <T_list>  (3) 
unknown

>  <T_units>  (3) 
unknown

>  <yaml_path>  (3) 
unknown

>  <frequencies_cm1>  (3) 
unknown

>  <ZPE_kJmol>  (3) 
unknown

>  <E_elec_kJmol>  (3) 
unknown

>  <E0_minus_Eelec_plus_ZPE_kJmol>  (3) 
unknown

>  <rxn>  (3) 
unknown

>  <species_type>  (3) 
unknown

>  <species_folder>  (3) 
unknown

>  <frequencies_cm1_list>  (3) 
[]

>  <ts_imag_freq_cm1>  (3) 
-1707.4487

>  <ts_freq_out_path>  (3) 
/home/calvin/Dropbox/PersonalFolders/Calvin/HAb_Converged/rxn_1246/output/rxns/TS0/geometry/freq.out

>  <E0_kJmol>  (3) 
-2.60156e+06

>  <H298_kJmol>  (3) 
unknown

$$$$

     RDKit          3D

  6  5  0  0  0  0  0  0  0  0999 V2000
    1.4968   -0.0097    0.1113 C   0  0  0  0  0  0  0  0  0  1  0  0
    0.2829   -0.0018    0.0210 C   0  0  0  0  0  0  0  0  0  2  0  0
   -1.0795    0.0070   -0.0803 C   0  0  0  0  0  3  0  0  0  3  0  0
    2.5571   -0.0165    0.1902 H   0  0  0  0  0  0  0  0  0  4  0  0
   -1.6181    0.9389   -0.1832 H   0  0  0  0  0  0  0  0  0  5  0  0
   -1.6393   -0.9179   -0.0591 H   0  0  0  0  0  0  0  0  0  6  0  0
  1  4  1  0
  1  2  1  0
  2  3  1  0
  3  6  1  0
  3  5  1  0
M  RAD  1   3   2
M  END
>  <rmg_smiles>  (4) 
[CH]C[CH2]

>  <rmg_adjacency_list>  (4) 
multiplicity 2
1 C u1 p0 c0 {2,S} {4,S} {5,S}
2 C u0 p1 c0 {1,S} {3,S}
3 C u0 p1 c0 {2,S} {6,S}
4 H u0 p0 c0 {1,S}
5 H u0 p0 c0 {1,S}
6 H u0 p0 c0 {3,S}


>  <multiplicity>  (4) 
2

>  <reaction>  (4) 
rxn_1246

>  <type>  (4) 
r1

>  <role_mapnums>  (4) 
{}

>  <role_mapidx>  (4) 
{}

>  <ordered_mapped_smiles>  (4) 
[CH2:1]([CH2:2][C:3]([H:5])[H:6])[H:4]

>  <level_of_theory>  (4) 
wb97xd/def2tzvp

>  <lot_method>  (4) 
wb97xd

>  <lot_basis>  (4) 
def2tzvp

>  <spin_multiplicity>  (4) 
2.0

>  <optical_isomers>  (4) 
1.0

>  <modes>  (4) 
IdealGasTranslation(mass=(39.0235, 'amu')),         NonlinearRotor(             inertia = ([1.74527, 52.5377, 54.2829

>  <frequency_value>  (4) 
unknown

>  <frequency_units>  (4) 
unknown

>  <frequency_list>  (4) 
unknown

>  <arkane_path>  (4) 
/home/calvin/Dropbox/PersonalFolders/Calvin/HAb_Converged/rxn_1246/output/Species/rxn_1246_CtC[CH2]/arkane/output.py

>  <path_exists>  (4) 
True

>  <E0_value>  (4) 
-304448.46556643327

>  <E0_units>  (4) 
kJ/mol

>  <thermo_class>  (4) 
NASA

>  <Cp0_value>  (4) 
33.257888

>  <Cp0_units>  (4) 
J/(mol*K)

>  <CpInf_value>  (4) 
133.031552

>  <CpInf_units>  (4) 
J/(mol*K)

>  <Tmin_value>  (4) 
10.0

>  <Tmin_units>  (4) 
K

>  <Tmax_value>  (4) 
3000.0

>  <Tmax_units>  (4) 
K

>  <polynomials>  (4) 
[{"name": "polynomial1", "class": "NASAPolynomial", "Tmin_value": 10.0, "Tmin_units": "K", "Tmax_value": 545.4322858033976, "Tmax_units": "K", "coeffs": [3.9499603218219184, 0.003017565134064686, 5.5663880593738125e-05, -1.145891938777454e-07, 7.087527216200762e-11, -36616690.41912999, 5.464661756584002]}, {"name": "polynomial2", "class": "NASAPolynomial", "Tmin_value": 545.4322858033976, "Tmin_units": "K", "Tmax_value": 3000.0, "Tmax_units": "K", "coeffs": [3.789373911177466, 0.015460066047789113, -9.533910331026645e-06, 2.9656464623318287e-09, -3.6191150968379614e-13, -36616840.46347278, 4.606005615672744]}]

>  <H298_value>  (4) 
-72761.72685205255

>  <H298_units>  (4) 
kcal/mol

>  <S298_value>  (4) 
60.54560432912815

>  <S298_units>  (4) 
cal/(mol*K)

>  <Cp_T_value_list>  (4) 
[14.596350865656005, 16.978505208172123, 18.840244425047544, 20.322925848209742, 22.70561515204646, 24.480922661541676, 27.23477345925829, 28.831290583038445, 29.744408163505042]

>  <Cp_T_units>  (4) 
cal/(mol*K)

>  <T_list>  (4) 
[300.0, 400.0, 500.0, 600.0, 800.0, 1000.0, 1500.0, 2000.0, 2400.0]

>  <T_units>  (4) 
K

>  <yaml_path>  (4) 
/home/calvin/Dropbox/PersonalFolders/Calvin/HAb_Converged/rxn_1246/output/Species/rxn_1246_CtC[CH2]/rxn_1246_CtCCH2.yml

>  <frequencies_cm1>  (4) 
[355.94331707688, 407.51437683008004, 504.51054447508, 653.44172209524, 683.5053838262, 1024.2589293752399, 1075.37676809732, 1445.76135530216, 1997.3313501752, 3133.58394313432, 3230.4359040876, 3427.03082681388]

>  <ZPE_kJmol>  (4) 
107.29725110288972

>  <E_elec_kJmol>  (4) 
-304555.76281753613

>  <E0_minus_Eelec_plus_ZPE_kJmol>  (4) 
0.0

>  <rxn>  (4) 
rxn_1246

>  <species_type>  (4) 
p1

>  <species_folder>  (4) 
rxn_1246_CtC[CH2]

>  <frequencies_cm1_list>  (4) 
[355.94331707688, 407.51437683008004, 504.51054447508, 653.44172209524, 683.5053838262, 1024.2589293752399, 1075.37676809732, 1445.76135530216, 1997.3313501752, 3133.58394313432, 3230.4359040876, 3427.03082681388]

>  <E0_kJmol>  (4) 
-304448

>  <H298_kJmol>  (4) 
-304435

$$$$

     RDKit          3D

  7  6  0  0  0  0  0  0  0  0999 V2000
    1.8092   -0.3013   -0.2242 S   0  0  0  0  0  0  0  0  0  1  0  0
    0.1552   -0.6967   -0.1137 C   0  0  0  0  0  0  0  0  0  2  0  0
   -0.8921    0.1788    0.1148 C   0  0  0  0  0  0  0  0  0  3  0  0
   -0.7548    1.8245    0.3328 S   0  0  0  0  0  1  0  0  0  4  0  0
    1.6168    1.0210   -0.0187 H   0  0  0  0  0  0  0  0  0  5  0  0
   -0.0550   -1.7522   -0.2412 H   0  0  0  0  0  0  0  0  0  6  0  0
   -1.8791   -0.2740    0.1502 H   0  0  0  0  0  0  0  0  0  7  0  0
  1  2  1  0
  1  5  1  0
  2  6  1  0
  2  3  1  0
  3  7  1  0
  3  4  1  0
M  RAD  1   4   2
M  END
>  <rmg_smiles>  (5) 
[S][CH][CH]S

>  <rmg_adjacency_list>  (5) 
multiplicity 2
1 S u0 p2 c0 {3,S} {7,S}
2 S u1 p2 c0 {4,S}
3 C u0 p0 c0 {1,S} {4,S} {5,S}
4 C u0 p0 c0 {2,S} {3,S} {6,S}
5 H u0 p0 c0 {3,S}
6 H u0 p0 c0 {4,S}
7 H u0 p0 c0 {1,S}


>  <multiplicity>  (5) 
2

>  <reaction>  (5) 
rxn_1246

>  <type>  (5) 
r2

>  <role_mapnums>  (5) 
{}

>  <role_mapidx>  (5) 
{}

>  <ordered_mapped_smiles>  (5) 
[S:1]([CH:2]([CH:3]([S:4])[H:7])[H:6])[H:5]

>  <level_of_theory>  (5) 
wb97xd/def2tzvp

>  <lot_method>  (5) 
wb97xd

>  <lot_basis>  (5) 
def2tzvp

>  <spin_multiplicity>  (5) 
2.0

>  <optical_isomers>  (5) 
1.0

>  <modes>  (5) 
IdealGasTranslation(mass=(90.9676, 'amu')),         NonlinearRotor(             inertia = ([41.4097, 197.136, 238.545

>  <frequency_value>  (5) 
unknown

>  <frequency_units>  (5) 
unknown

>  <frequency_list>  (5) 
unknown

>  <arkane_path>  (5) 
/home/calvin/Dropbox/PersonalFolders/Calvin/HAb_Converged/rxn_1246/output/Species/rxn_1246_S[CH]C=S/arkane/output.py

>  <path_exists>  (5) 
True

>  <E0_value>  (5) 
-2295558.499177116

>  <E0_units>  (5) 
kJ/mol

>  <thermo_class>  (5) 
NASA

>  <Cp0_value>  (5) 
33.257888

>  <Cp0_units>  (5) 
J/(mol*K)

>  <CpInf_value>  (5) 
157.97496800000002

>  <CpInf_units>  (5) 
J/(mol*K)

>  <Tmin_value>  (5) 
10.0

>  <Tmin_units>  (5) 
K

>  <Tmax_value>  (5) 
3000.0

>  <Tmax_units>  (5) 
K

>  <polynomials>  (5) 
[{"name": "polynomial1", "class": "NASAPolynomial", "Tmin_value": 10.0, "Tmin_units": "K", "Tmax_value": 554.7124392285518, "Tmax_units": "K", "coeffs": [3.9306502353930965, 0.004133922870558618, 7.817124796321941e-05, -1.5845467344039594e-07, 9.591038319478953e-11, -276091912.08472174, 10.601050984557745]}, {"name": "polynomial2", "class": "NASAPolynomial", "Tmin_value": 554.7124392285518, "Tmin_units": "K", "Tmax_value": 3000.0, "Tmax_units": "K", "coeffs": [3.4410377237542638, 0.02325799354743955, -1.5708672851982145e-05, 5.0491053726302925e-09, -6.172994321373326e-13, -276092097.67652106, 10.512139558674505]}]

>  <H298_value>  (5) 
-548648.1110275815

>  <H298_units>  (5) 
kcal/mol

>  <S298_value>  (5) 
72.51024917341623

>  <S298_units>  (5) 
cal/(mol*K)

>  <Cp_T_value_list>  (5) 
[17.298309340361524, 20.678524612659682, 23.305934853423146, 25.33949880526343, 28.469074134584886, 30.647025274417317, 33.58213330177607, 35.051114287355276, 35.96165263240023]

>  <Cp_T_units>  (5) 
cal/(mol*K)

>  <T_list>  (5) 
[300.0, 400.0, 500.0, 600.0, 800.0, 1000.0, 1500.0, 2000.0, 2400.0]

>  <T_units>  (5) 
K

>  <yaml_path>  (5) 
/home/calvin/Dropbox/PersonalFolders/Calvin/HAb_Converged/rxn_1246/output/Species/rxn_1246_S[CH]C=S/rxn_1246_SCHC=S.yml

>  <frequencies_cm1>  (5) 
[200.51597134399998, 323.99123438291997, 464.0365329989999, 549.3038897174399, 726.3828401642799, 743.81811589176, 881.4256347192398, 918.3837497114799, 977.1651440506799, 1183.8339342414001, 1348.94372927548, 1411.0968134068, 2564.15291944396, 3116.1761353481197, 3166.7652162005597]

>  <ZPE_kJmol>  (5) 
111.10913739733977

>  <E_elec_kJmol>  (5) 
-2295669.608314513

>  <E0_minus_Eelec_plus_ZPE_kJmol>  (5) 
0.0

>  <rxn>  (5) 
rxn_1246

>  <species_type>  (5) 
r1

>  <species_folder>  (5) 
rxn_1246_S[CH]C=S

>  <frequencies_cm1_list>  (5) 
[200.51597134399998, 323.99123438291997, 464.0365329989999, 549.3038897174399, 726.3828401642799, 743.81811589176, 881.4256347192398, 918.3837497114799, 977.1651440506799, 1183.8339342414001, 1348.94372927548, 1411.0968134068, 2564.15291944396, 3116.1761353481197, 3166.7652162005597]

>  <E0_kJmol>  (5) 
-2.29556e+06

>  <H298_kJmol>  (5) 
-2.29554e+06

$$$$
