
     RDKit          3D

 15 14  0  0  0  0  0  0  0  0999 V2000
    0.0990   -0.4572   -1.5395 C   0  0  0  0  0  0  0  0  0  1  0  0
    0.4557   -0.3814   -0.0547 C   0  0  0  0  0  0  0  0  0  2  0  0
    1.9123    0.0231    0.1470 C   0  0  0  0  0  0  0  0  0  3  0  0
   -0.4595    0.5679    0.6904 C   0  0  0  0  0  0  0  0  0  4  0  0
   -1.8129    0.2434    0.6669 O   0  0  0  0  0  0  0  0  0  5  0  0
    0.7166   -1.1985   -2.0512 H   0  0  0  0  0  0  0  0  0  6  0  0
    0.2659    0.5103   -2.0203 H   0  0  0  0  0  0  0  0  0  7  0  0
   -0.9484   -0.7243   -1.6821 H   0  0  0  0  0  0  0  0  0  8  0  0
    0.3169   -1.3797    0.3830 H   0  0  0  0  0  0  0  0  0  9  0  0
    2.0910    1.0256   -0.2510 H   0  0  0  0  0  0  0  0  0 10  0  0
    2.5816   -0.6642   -0.3728 H   0  0  0  0  0  0  0  0  0 11  0  0
    2.1841    0.0287    1.2037 H   0  0  0  0  0  0  0  0  0 12  0  0
   -0.1353    0.5616    1.7329 H   0  0  0  0  0  0  0  0  0 13  0  0
   -0.3581    1.6055    0.3663 H   0  0  0  0  0  0  0  0  0 14  0  0
   -1.9105   -0.6801    0.9089 H   0  0  0  0  0  0  0  0  0 15  0  0
  1  8  1  0
  1  7  1  0
  1  6  1  0
  1  2  1  0
  2  9  1  0
  2  3  1  0
  2  4  1  0
  3 11  1  0
  3 12  1  0
  3 10  1  0
  4 14  1  0
  4 13  1  0
  4  5  1  0
  5 15  1  0
M  END
>  <rmg_smiles>  (1) 
CC(C)CO

>  <rmg_adjacency_list>  (1) 
1  O u0 p2 c0 {3,S} {15,S}
2  C u0 p0 c0 {3,S} {4,S} {5,S} {6,S}
3  C u0 p0 c0 {1,S} {2,S} {7,S} {8,S}
4  C u0 p0 c0 {2,S} {9,S} {10,S} {11,S}
5  C u0 p0 c0 {2,S} {12,S} {13,S} {14,S}
6  H u0 p0 c0 {2,S}
7  H u0 p0 c0 {3,S}
8  H u0 p0 c0 {3,S}
9  H u0 p0 c0 {4,S}
10 H u0 p0 c0 {4,S}
11 H u0 p0 c0 {4,S}
12 H u0 p0 c0 {5,S}
13 H u0 p0 c0 {5,S}
14 H u0 p0 c0 {5,S}
15 H u0 p0 c0 {1,S}


>  <multiplicity>  (1) 
1

>  <reaction>  (1) 
rxn_418

>  <type>  (1) 
r1h

>  <role_mapnums>  (1) 
{"r1h_a": 4, "r1h_h": 13}

>  <role_mapidx>  (1) 
{"r1h_a": 3, "r1h_h": 12}

>  <ordered_mapped_smiles>  (1) 
[C:1]([C:2]([C:3]([H:10])([H:11])[H:12])([C:4]([O:5][H:15])([H:13])[H:14])[H:9])([H:6])([H:7])[H:8]

>  <mol_properties>  (1) 
{"3": {"label": "donator", "atom_type": "Cs"}, "12": {"label": "d_hydrogen", "atom_type": "H0"}}

>  <level_of_theory>  (1) 
wb97xd/def2tzvp

>  <lot_method>  (1) 
wb97xd

>  <lot_basis>  (1) 
def2tzvp

>  <spin_multiplicity>  (1) 
1.0

>  <optical_isomers>  (1) 
2.0

>  <modes>  (1) 
IdealGasTranslation(mass=(74.0732, 'amu')),         NonlinearRotor(             inertia = ([66.603, 143.905, 189.515

>  <frequency_value>  (1) 
unknown

>  <frequency_units>  (1) 
unknown

>  <frequency_list>  (1) 
unknown

>  <arkane_path>  (1) 
/home/calvin/Dropbox/PersonalFolders/Calvin/HAb_Converged/rxn_418/output/Species/rxn_418_CC[C]CO/arkane/output.py

>  <path_exists>  (1) 
True

>  <E0_value>  (1) 
-613201.798563127

>  <E0_units>  (1) 
kJ/mol

>  <thermo_class>  (1) 
NASA

>  <Cp0_value>  (1) 
33.257888

>  <Cp0_units>  (1) 
J/(mol*K)

>  <CpInf_value>  (1) 
357.522296

>  <CpInf_units>  (1) 
J/(mol*K)

>  <Tmin_value>  (1) 
10.0

>  <Tmin_units>  (1) 
K

>  <Tmax_value>  (1) 
3000.0

>  <Tmax_units>  (1) 
K

>  <polynomials>  (1) 
[{"name": "polynomial1", "class": "NASAPolynomial", "Tmin_value": 10.0, "Tmin_units": "K", "Tmax_value": 575.0651176416371, "Tmax_units": "K", "coeffs": [3.712805799436365, 0.02341794423636385, 4.945520881208784e-05, -8.422411516035852e-08, 3.9345456013228885e-11, -73751136.90729754, 10.481383297442903]}, {"name": "polynomial2", "class": "NASAPolynomial", "Tmin_value": 575.0651176416371, "Tmin_units": "K", "Tmax_value": 3000.0, "Tmax_units": "K", "coeffs": [-0.6878246335024606, 0.05402765028160735, -3.0387394291557736e-05, 8.336812494957577e-09, -8.939885093345157e-13, -73750630.77899487, 29.27712262817248]}]

>  <H298_value>  (1) 
-146553.90003462895

>  <H298_units>  (1) 
kcal/mol

>  <S298_value>  (1) 
79.77174717591569

>  <S298_units>  (1) 
cal/(mol*K)

>  <Cp_T_value_list>  (1) 
[26.298303224673802, 33.0069380139673, 39.18106842386457, 44.660864775466386, 53.63198804085297, 60.401649014178936, 70.73051971901154, 75.92834368294982, 78.56390633588433]

>  <Cp_T_units>  (1) 
cal/(mol*K)

>  <T_list>  (1) 
[300.0, 400.0, 500.0, 600.0, 800.0, 1000.0, 1500.0, 2000.0, 2400.0]

>  <T_units>  (1) 
K

>  <yaml_path>  (1) 
/home/calvin/Dropbox/PersonalFolders/Calvin/HAb_Converged/rxn_418/output/Species/rxn_418_CC[C]CO/rxn_418_CCCCO.yml

>  <frequencies_cm1>  (1) 
[130.82980431664, 216.90746530284, 234.24660323583998, 266.73431078476, 284.49233482228, 352.62656316731994, 430.94453074191995, 496.53797451855996, 825.04768524204, 903.1871111983199, 929.7966793133199, 953.3298380049599, 972.0423730019598, 1079.3527525975999, 1116.63361589988, 1149.4372047735199, 1195.51467627072, 1246.91406139092, 1321.76420137892, 1364.46311609868, 1379.29580438988, 1394.3345022406797, 1400.81006939744, 1419.04878240736, 1474.01899989396, 1475.3855299726397, 1489.2293723777598, 1494.17360180816, 1499.15903315048, 2968.2269366287196, 2974.66816885888, 3005.13698272372, 3008.8176868552396, 3047.7397596489996, 3073.490954599, 3077.9132931450795, 3086.88844295832, 3102.6138393411197, 3839.6611077073594]

>  <ZPE_kJmol>  (1) 
356.9742425885658

>  <E_elec_kJmol>  (1) 
-613558.7728057157

>  <E0_minus_Eelec_plus_ZPE_kJmol>  (1) 
0.0

>  <rxn>  (1) 
rxn_418

>  <species_type>  (1) 
r0

>  <species_folder>  (1) 
rxn_418_CC[C]CO

>  <frequencies_cm1_list>  (1) 
[130.82980431664, 216.90746530284, 234.24660323583998, 266.73431078476, 284.49233482228, 352.62656316731994, 430.94453074191995, 496.53797451855996, 825.04768524204, 903.1871111983199, 929.7966793133199, 953.3298380049599, 972.0423730019598, 1079.3527525975999, 1116.63361589988, 1149.4372047735199, 1195.51467627072, 1246.91406139092, 1321.76420137892, 1364.46311609868, 1379.29580438988, 1394.3345022406797, 1400.81006939744, 1419.04878240736, 1474.01899989396, 1475.3855299726397, 1489.2293723777598, 1494.17360180816, 1499.15903315048, 2968.2269366287196, 2974.66816885888, 3005.13698272372, 3008.8176868552396, 3047.7397596489996, 3073.490954599, 3077.9132931450795, 3086.88844295832, 3102.6138393411197, 3839.6611077073594]

>  <E0_kJmol>  (1) 
-613202

>  <H298_kJmol>  (1) 
-613182

$$$$

     RDKit          3D

  8  7  0  0  0  0  0  0  0  0999 V2000
   -0.2378    0.9067   -1.1279 H   0  0  0  0  0  0  0  0  0  1  0  0
    0.0238   -0.7471    0.1121 C   0  0  0  0  0  0  0  0  0  2  0  0
   -0.0145    0.7452   -0.0753 C   0  0  0  0  0  0  0  0  0  3  0  0
    0.2100   -1.0274    1.1541 H   0  0  0  0  0  0  0  0  0  4  0  0
    0.8118   -1.2046   -0.4909 H   0  0  0  0  0  0  0  0  0  5  0  0
   -0.9252   -1.2077   -0.1751 H   0  0  0  0  0  0  0  0  0  6  0  0
    0.9332    1.2563    0.0831 H   0  0  0  0  0  0  0  0  0  7  0  0
   -0.8395    1.2532    0.4194 H   0  0  0  0  0  0  0  0  0  8  0  0
  1  3  1  0
  2  5  1  0
  2  6  1  0
  2  3  1  0
  2  4  1  0
  3  8  1  0
  3  7  1  0
M  END
>  <rmg_smiles>  (2) 
CC

>  <rmg_adjacency_list>  (2) 
1 H u0 p0 c0 {3,S}
2 C u0 p0 c0 {3,S} {4,S} {5,S} {6,S}
3 C u0 p0 c0 {1,S} {2,S} {7,S} {8,S}
4 H u0 p0 c0 {2,S}
5 H u0 p0 c0 {2,S}
6 H u0 p0 c0 {2,S}
7 H u0 p0 c0 {3,S}
8 H u0 p0 c0 {3,S}


>  <multiplicity>  (2) 
1

>  <reaction>  (2) 
rxn_418

>  <type>  (2) 
r2h

>  <role_mapnums>  (2) 
{"r2h_a": 3, "r2h_h": 1}

>  <role_mapidx>  (2) 
{"r2h_a": 2, "r2h_h": 0}

>  <ordered_mapped_smiles>  (2) 
[H:1][C:3]([C:2]([H:4])([H:5])[H:6])([H:7])[H:8]

>  <mol_properties>  (2) 
{"0": {"label": "a_hydrogen", "atom_type": "H0"}, "2": {"label": "acceptor", "atom_type": "Cs"}}

>  <level_of_theory>  (2) 
wb97xd/def2tzvp

>  <lot_method>  (2) 
wb97xd

>  <lot_basis>  (2) 
def2tzvp

>  <spin_multiplicity>  (2) 
1.0

>  <optical_isomers>  (2) 
1.0

>  <modes>  (2) 
IdealGasTranslation(mass=(30.0469, 'amu')),         NonlinearRotor(             inertia = ([6.25566, 25.1393, 25.1393

>  <frequency_value>  (2) 
unknown

>  <frequency_units>  (2) 
unknown

>  <frequency_list>  (2) 
unknown

>  <arkane_path>  (2) 
/home/calvin/Dropbox/PersonalFolders/Calvin/HAb_Converged/rxn_418/output/Species/rxn_418_CC/arkane/output.py

>  <path_exists>  (2) 
True

>  <E0_value>  (2) 
-209409.0952137841

>  <E0_units>  (2) 
kJ/mol

>  <thermo_class>  (2) 
NASA

>  <Cp0_value>  (2) 
33.257888

>  <Cp0_units>  (2) 
J/(mol*K)

>  <CpInf_value>  (2) 
182.918384

>  <CpInf_units>  (2) 
J/(mol*K)

>  <Tmin_value>  (2) 
10.0

>  <Tmin_units>  (2) 
K

>  <Tmax_value>  (2) 
3000.0

>  <Tmax_units>  (2) 
K

>  <polynomials>  (2) 
[{"name": "polynomial1", "class": "NASAPolynomial", "Tmin_value": 10.0, "Tmin_units": "K", "Tmax_value": 746.6686841225998, "Tmax_units": "K", "coeffs": [4.05949155328205, -0.003835565665241399, 5.3186040380635144e-05, -6.162047637406245e-08, 2.3242210517060023e-11, -25186098.42214424, 3.537324504259843]}, {"name": "polynomial2", "class": "NASAPolynomial", "Tmin_value": 746.6686841225998, "Tmin_units": "K", "Tmax_value": 3000.0, "Tmax_units": "K", "coeffs": [-1.046496014036793, 0.026500176421266477, -1.3747367898389822e-05, 3.490635384402257e-09, -3.493819827122593e-13, -25185419.059970565, 26.122432242478077]}]

>  <H298_value>  (2) 
-50047.2003571238

>  <H298_units>  (2) 
kcal/mol

>  <S298_value>  (2) 
54.420548043106656

>  <S298_units>  (2) 
cal/(mol*K)

>  <Cp_T_value_list>  (2) 
[12.360572544544063, 15.274308747535915, 18.259044378417013, 21.07888414556187, 25.832548078118208, 29.50517950077797, 35.34115403896942, 38.351806873475496, 39.80767330504735]

>  <Cp_T_units>  (2) 
cal/(mol*K)

>  <T_list>  (2) 
[300.0, 400.0, 500.0, 600.0, 800.0, 1000.0, 1500.0, 2000.0, 2400.0]

>  <T_units>  (2) 
K

>  <yaml_path>  (2) 
/home/calvin/Dropbox/PersonalFolders/Calvin/HAb_Converged/rxn_418/output/Species/rxn_418_CC/rxn_418_CC.yml

>  <frequencies_cm1>  (2) 
[304.49586305944, 822.3970289085198, 822.4107628791601, 1005.43652261312, 1210.79371860772, 1210.8005855930398, 1393.77140944444, 1414.4616362136, 1489.39418002544, 1489.4010470107598, 1490.3006220876798, 1490.3006220876798, 3015.21771717348, 3016.07609033848, 3072.8111230523195, 3072.8179900376404, 3096.4266855677993, 3096.4335525531196]

>  <ZPE_kJmol>  (2) 
194.47545128409476

>  <E_elec_kJmol>  (2) 
-209603.57066506823

>  <E0_minus_Eelec_plus_ZPE_kJmol>  (2) 
0.0

>  <rxn>  (2) 
rxn_418

>  <species_type>  (2) 
p0

>  <species_folder>  (2) 
rxn_418_CC

>  <frequencies_cm1_list>  (2) 
[304.49586305944, 822.3970289085198, 822.4107628791601, 1005.43652261312, 1210.79371860772, 1210.8005855930398, 1393.77140944444, 1414.4616362136, 1489.39418002544, 1489.4010470107598, 1490.3006220876798, 1490.3006220876798, 3015.21771717348, 3016.07609033848, 3072.8111230523195, 3072.8179900376404, 3096.4266855677993, 3096.4335525531196]

>  <E0_kJmol>  (2) 
-209409

>  <H298_kJmol>  (2) 
-209397

$$$$

     RDKit          3D

 22 20  0  0  0  0  0  0  0  0999 V2000
   -0.0993   -0.0038   -2.4234 C   0  0  0  0  0  0  0  0  0  1  0  0
    0.2574    0.0719   -0.9386 C   0  0  0  0  0  0  0  0  0  2  0  0
    1.7140    0.4765   -0.7369 C   0  0  0  0  0  0  0  0  0  3  0  0
   -0.6578    1.0213   -0.1935 C   0  0  0  0  0  0  0  0  0  4  0  0
   -2.0113    0.6968   -0.2170 O   0  0  0  0  0  0  0  0  0  5  0  0
    0.5183   -0.7451   -2.9351 H   0  0  0  0  0  0  0  0  0  6  0  0
    0.0675    0.9637   -2.9042 H   0  0  0  0  0  0  0  0  0  7  0  0
   -1.1467   -0.2709   -2.5660 H   0  0  0  0  0  0  0  0  0  8  0  0
    0.1185   -0.9263   -0.5009 H   0  0  0  0  0  0  0  0  0  9  0  0
    1.8926    1.4790   -1.1349 H   0  0  0  0  0  0  0  0  0 10  0  0
    2.3833   -0.2108   -1.2567 H   0  0  0  0  0  0  0  0  0 11  0  0
    1.9858    0.4821    0.3198 H   0  0  0  0  0  0  0  0  0 12  0  0
   -0.2687    1.0137    1.0581 H   0  0  0  0  0  0  0  0  0 13  0  0
   -0.5564    2.0589   -0.5176 H   0  0  0  0  0  0  0  0  0 14  0  0
   -2.1088   -0.2267    0.0250 H   0  0  0  0  0  0  0  0  0 15  0  0
    0.0568   -0.6862    2.5987 C   0  0  0  0  0  0  0  0  0 16  0  0
    0.0185    0.8061    2.4114 C   0  0  0  0  0  3  0  0  0 17  0  0
    0.2429   -0.9665    3.6407 H   0  0  0  0  0  0  0  0  0 18  0  0
    0.8448   -1.1437    1.9957 H   0  0  0  0  0  0  0  0  0 19  0  0
   -0.8922   -1.1468    2.3115 H   0  0  0  0  0  0  0  0  0 20  0  0
    0.9661    1.3172    2.5698 H   0  0  0  0  0  0  0  0  0 21  0  0
   -0.8065    1.3141    2.9061 H   0  0  0  0  0  0  0  0  0 22  0  0
  1  7  1  0
  1  8  1  0
  1  6  1  0
  1  2  1  0
  2  3  1  0
  2  4  1  0
  2  9  1  0
  3 12  1  0
  3 11  1  0
  3 10  1  0
  4  5  1  0
  4 14  1  0
  4 13  1  0
  5 15  1  0
 16 18  1  0
 16 19  1  0
 16 20  1  0
 16 17  1  0
 17 21  1  0
 17 22  1  0
M  RAD  1  17   2
M  END
>  <rmg_smiles>  (3) 
CC(C)CO.[CH2]C

>  <rmg_adjacency_list>  (3) 
multiplicity 2
1  O u0 p2 c0 {3,S} {22,S}
2  C u0 p0 c0 {3,S} {4,S} {5,S} {8,S}
3  C u0 p0 c0 {1,S} {2,S} {9,S} {10,S}
4  C u0 p0 c0 {2,S} {11,S} {12,S} {13,S}
5  C u0 p0 c0 {2,S} {14,S} {15,S} {16,S}
6  C u0 p0 c0 {7,S} {17,S} {18,S} {19,S}
7  C u1 p0 c0 {6,S} {20,S} {21,S}
8  H u0 p0 c0 {2,S}
9  H u0 p0 c0 {3,S}
10 H u0 p0 c0 {3,S}
11 H u0 p0 c0 {4,S}
12 H u0 p0 c0 {4,S}
13 H u0 p0 c0 {4,S}
14 H u0 p0 c0 {5,S}
15 H u0 p0 c0 {5,S}
16 H u0 p0 c0 {5,S}
17 H u0 p0 c0 {6,S}
18 H u0 p0 c0 {6,S}
19 H u0 p0 c0 {6,S}
20 H u0 p0 c0 {7,S}
21 H u0 p0 c0 {7,S}
22 H u0 p0 c0 {1,S}


>  <multiplicity>  (3) 
2

>  <reaction>  (3) 
rxn_418

>  <type>  (3) 
ts

>  <role_mapnums>  (3) 
{"*2": 13, "*1": 4, "*3": 17, "*0": 2, "*4": 16}

>  <role_mapidx>  (3) 
{"*2": 12, "*1": 3, "*3": 16, "*0": 1, "*4": 15}

>  <ordered_mapped_smiles>  (3) 
[C:1]([C:2]([C:3]([H:10])([H:11])[H:12])([C:4]([O:5][H:15])([H:13])[H:14])[H:9])([H:6])([H:7])[H:8].[C:16]([C:17]([H:21])[H:22])([H:18])([H:19])[H:20]

>  <mol_properties>  (3) 
{"1": {"label": "*0", "atom_type": "Cs"}, "3": {"label": "*1", "atom_type": "Cs"}, "12": {"label": "*2", "atom_type": "H0"}, "15": {"label": "*4", "atom_type": "Cs"}, "16": {"label": "*3", "atom_type": "Cs"}}

>  <level_of_theory>  (3) 
wb97xd/def2tzvp

>  <lot_method>  (3) 
wb97xd

>  <lot_basis>  (3) 
def2tzvp

>  <spin_multiplicity>  (3) 
2.0

>  <optical_isomers>  (3) 
2.0

>  <modes>  (3) 
IdealGasTranslation(mass=(103.112, 'amu')),         NonlinearRotor(             inertia = ([168.968, 345.558, 435.559

>  <frequency_value>  (3) 
-1712.85

>  <frequency_units>  (3) 
cm^-1

>  <frequency_list>  (3) 
unknown

>  <arkane_path>  (3) 
/home/calvin/Dropbox/PersonalFolders/Calvin/HAb_Converged/rxn_418/output/rxns/TS0/arkane/output.py

>  <path_exists>  (3) 
True

>  <E0_value>  (3) 
-820837.0

>  <E0_units>  (3) 
kJ/mol

>  <thermo_class>  (3) 
unknown

>  <Cp0_value>  (3) 
unknown

>  <Cp0_units>  (3) 
unknown

>  <CpInf_value>  (3) 
unknown

>  <CpInf_units>  (3) 
unknown

>  <Tmin_value>  (3) 
unknown

>  <Tmin_units>  (3) 
unknown

>  <Tmax_value>  (3) 
unknown

>  <Tmax_units>  (3) 
unknown

>  <polynomials>  (3) 
unknown

>  <H298_value>  (3) 
unknown

>  <H298_units>  (3) 
unknown

>  <S298_value>  (3) 
unknown

>  <S298_units>  (3) 
unknown

>  <Cp_T_value_list>  (3) 
unknown

>  <Cp_T_units>  (3) 
unknown

>  <T_list>  (3) 
unknown

>  <T_units>  (3) 
unknown

>  <yaml_path>  (3) 
unknown

>  <frequencies_cm1>  (3) 
unknown

>  <ZPE_kJmol>  (3) 
unknown

>  <E_elec_kJmol>  (3) 
unknown

>  <E0_minus_Eelec_plus_ZPE_kJmol>  (3) 
unknown

>  <rxn>  (3) 
unknown

>  <species_type>  (3) 
unknown

>  <species_folder>  (3) 
unknown

>  <frequencies_cm1_list>  (3) 
[]

>  <ts_imag_freq_cm1>  (3) 
-1733.6588

>  <ts_freq_out_path>  (3) 
/home/calvin/Dropbox/PersonalFolders/Calvin/HAb_Converged/rxn_418/output/rxns/TS0/geometry/freq.out

>  <E0_kJmol>  (3) 
-820837

>  <H298_kJmol>  (3) 
unknown

$$$$

     RDKit          3D

 14 13  0  0  0  0  0  0  0  0999 V2000
   -1.1038   -1.2820   -0.0831 C   0  0  0  0  0  0  0  0  0  1  0  0
   -0.3738   -0.0303    0.3958 C   0  0  0  0  0  0  0  0  0  2  0  0
    1.0799   -0.0135   -0.1022 C   0  0  0  0  0  0  0  0  0  3  0  0
   -0.4539    0.0783    1.8774 C   0  0  0  0  0  3  0  0  0  4  0  0
   -0.0196    1.2652    2.3945 O   0  0  0  0  0  0  0  0  0  5  0  0
   -0.6387   -2.1819    0.3292 H   0  0  0  0  0  0  0  0  0  6  0  0
   -1.0649   -1.3593   -1.1709 H   0  0  0  0  0  0  0  0  0  7  0  0
   -2.1510   -1.2728    0.2226 H   0  0  0  0  0  0  0  0  0  8  0  0
   -0.8759    0.8495   -0.0235 H   0  0  0  0  0  0  0  0  0  9  0  0
    1.1145   -0.0235   -1.1941 H   0  0  0  0  0  0  0  0  0 10  0  0
    1.6194   -0.8920    0.2618 H   0  0  0  0  0  0  0  0  0 11  0  0
    1.6007    0.8771    0.2500 H   0  0  0  0  0  0  0  0  0 12  0  0
   -0.3212   -0.8061    2.4983 H   0  0  0  0  0  0  0  0  0 13  0  0
   -0.0217    1.2207    3.3511 H   0  0  0  0  0  0  0  0  0 14  0  0
  1  8  1  0
  1  7  1  0
  1  6  1  0
  1  2  1  0
  2  9  1  0
  2  3  1  0
  2  4  1  0
  3 11  1  0
  3 12  1  0
  3 10  1  0
  4 13  1  0
  4  5  1  0
  5 14  1  0
M  RAD  1   4   2
M  END
>  <rmg_smiles>  (4) 
CC(C)[CH]O

>  <rmg_adjacency_list>  (4) 
multiplicity 2
1  O u0 p2 c0 {5,S} {14,S}
2  C u0 p0 c0 {3,S} {4,S} {5,S} {6,S}
3  C u0 p0 c0 {2,S} {7,S} {8,S} {9,S}
4  C u0 p0 c0 {2,S} {10,S} {11,S} {12,S}
5  C u1 p0 c0 {1,S} {2,S} {13,S}
6  H u0 p0 c0 {2,S}
7  H u0 p0 c0 {3,S}
8  H u0 p0 c0 {3,S}
9  H u0 p0 c0 {3,S}
10 H u0 p0 c0 {4,S}
11 H u0 p0 c0 {4,S}
12 H u0 p0 c0 {4,S}
13 H u0 p0 c0 {5,S}
14 H u0 p0 c0 {1,S}


>  <multiplicity>  (4) 
2

>  <reaction>  (4) 
rxn_418

>  <type>  (4) 
r1

>  <role_mapnums>  (4) 
{}

>  <role_mapidx>  (4) 
{}

>  <ordered_mapped_smiles>  (4) 
[C:1]([C:2]([C:3]([H:10])([H:11])[H:12])([C:4]([O:5][H:14])[H:13])[H:9])([H:6])([H:7])[H:8]

>  <level_of_theory>  (4) 
wb97xd/def2tzvp

>  <lot_method>  (4) 
wb97xd

>  <lot_basis>  (4) 
def2tzvp

>  <spin_multiplicity>  (4) 
2.0

>  <optical_isomers>  (4) 
2.0

>  <modes>  (4) 
IdealGasTranslation(mass=(73.0653, 'amu')),         NonlinearRotor(             inertia = ([63.9279, 142.045, 186.855

>  <frequency_value>  (4) 
unknown

>  <frequency_units>  (4) 
unknown

>  <frequency_list>  (4) 
unknown

>  <arkane_path>  (4) 
/home/calvin/Dropbox/PersonalFolders/Calvin/HAb_Converged/rxn_418/output/Species/rxn_418_CC[C][CH]O/arkane/output.py

>  <path_exists>  (4) 
True

>  <E0_value>  (4) 
-611498.9441533478

>  <E0_units>  (4) 
kJ/mol

>  <thermo_class>  (4) 
NASA

>  <Cp0_value>  (4) 
33.257888

>  <Cp0_units>  (4) 
J/(mol*K)

>  <CpInf_value>  (4) 
332.57888

>  <CpInf_units>  (4) 
J/(mol*K)

>  <Tmin_value>  (4) 
10.0

>  <Tmin_units>  (4) 
K

>  <Tmax_value>  (4) 
3000.0

>  <Tmax_units>  (4) 
K

>  <polynomials>  (4) 
[{"name": "polynomial1", "class": "NASAPolynomial", "Tmin_value": 10.0, "Tmin_units": "K", "Tmax_value": 387.8808531937286, "Tmax_units": "K", "coeffs": [3.7222393532962537, 0.022291259950413256, 7.156387334799193e-05, -1.6167576527514427e-07, 1.0813877641480004e-10, -73546329.99847414, 11.232736942825126]}, {"name": "polynomial2", "class": "NASAPolynomial", "Tmin_value": 387.8808531937286, "Tmin_units": "K", "Tmax_value": 3000.0, "Tmax_units": "K", "coeffs": [1.2567420411620753, 0.047716496021830014, -2.6759489158970974e-05, 7.316151739873909e-09, -7.8091706410683e-13, -73546138.73411052, 20.792376379098172]}]

>  <H298_value>  (4) 
-146146.8518769244

>  <H298_units>  (4) 
kcal/mol

>  <S298_value>  (4) 
81.56704282131199

>  <S298_units>  (4) 
cal/(mol*K)

>  <Cp_T_value_list>  (4) 
[26.551154224214557, 32.80890734457895, 38.33486161896707, 43.186578733271226, 51.13056862546382, 57.13016706563306, 66.29570271918729, 70.91608380484615, 73.27069351231306]

>  <Cp_T_units>  (4) 
cal/(mol*K)

>  <T_list>  (4) 
[300.0, 400.0, 500.0, 600.0, 800.0, 1000.0, 1500.0, 2000.0, 2400.0]

>  <T_units>  (4) 
K

>  <yaml_path>  (4) 
/home/calvin/Dropbox/PersonalFolders/Calvin/HAb_Converged/rxn_418/output/Species/rxn_418_CC[C][CH]O/rxn_418_CCCCHO.yml

>  <frequencies_cm1>  (4) 
[104.70092517403998, 219.99074171152, 235.68180316771998, 254.11965875192, 332.02560720732, 349.05573080091995, 413.35131435208, 499.01695621908, 623.43986323216, 830.1635893054399, 927.4893722458, 938.7786961118799, 965.93762305248, 1105.1726174008, 1112.60956250236, 1179.4390636366, 1211.7688305231602, 1254.98963612724, 1322.6912443971198, 1331.4741186213998, 1381.25289520608, 1404.0169515418797, 1448.0274604577596, 1474.00526592332, 1474.7331663672398, 1486.9151983249199, 1499.8182637411999, 2993.20902922288, 3004.1550038229593, 3008.2133921470795, 3072.75618716976, 3078.33904623492, 3090.89189539988, 3093.7210933517194, 3098.6859237380795, 3862.4594989697603]

>  <ZPE_kJmol>  (4) 
321.09631993175043

>  <E_elec_kJmol>  (4) 
-611820.0404732795

>  <E0_minus_Eelec_plus_ZPE_kJmol>  (4) 
0.0

>  <rxn>  (4) 
rxn_418

>  <species_type>  (4) 
p1

>  <species_folder>  (4) 
rxn_418_CC[C][CH]O

>  <frequencies_cm1_list>  (4) 
[104.70092517403998, 219.99074171152, 235.68180316771998, 254.11965875192, 332.02560720732, 349.05573080091995, 413.35131435208, 499.01695621908, 623.43986323216, 830.1635893054399, 927.4893722458, 938.7786961118799, 965.93762305248, 1105.1726174008, 1112.60956250236, 1179.4390636366, 1211.7688305231602, 1254.98963612724, 1322.6912443971198, 1331.4741186213998, 1381.25289520608, 1404.0169515418797, 1448.0274604577596, 1474.00526592332, 1474.7331663672398, 1486.9151983249199, 1499.8182637411999, 2993.20902922288, 3004.1550038229593, 3008.2133921470795, 3072.75618716976, 3078.33904623492, 3090.89189539988, 3093.7210933517194, 3098.6859237380795, 3862.4594989697603]

>  <E0_kJmol>  (4) 
-611499

>  <H298_kJmol>  (4) 
-611478

$$$$

     RDKit          3D

  7  6  0  0  0  0  0  0  0  0999 V2000
   -0.6201    0.0189   -0.0017 C   0  0  0  0  0  0  0  0  0  1  0  0
    0.8589   -0.0553    0.0500 C   0  0  0  0  0  3  0  0  0  2  0  0
   -1.0738   -0.9730   -0.0559 H   0  0  0  0  0  0  0  0  0  3  0  0
   -0.9680    0.5706   -0.8872 H   0  0  0  0  0  0  0  0  0  4  0  0
   -1.0303    0.5369    0.8678 H   0  0  0  0  0  0  0  0  0  5  0  0
    1.3939   -0.8386   -0.4695 H   0  0  0  0  0  0  0  0  0  6  0  0
    1.4394    0.7404    0.4965 H   0  0  0  0  0  0  0  0  0  7  0  0
  1  5  1  0
  1  4  1  0
  1  3  1  0
  1  2  1  0
  2  7  1  0
  2  6  1  0
M  RAD  1   2   2
M  END
>  <rmg_smiles>  (5) 
C[CH2]

>  <rmg_adjacency_list>  (5) 
multiplicity 2
1 C u0 p0 c0 {2,S} {3,S} {4,S} {5,S}
2 C u1 p0 c0 {1,S} {6,S} {7,S}
3 H u0 p0 c0 {1,S}
4 H u0 p0 c0 {1,S}
5 H u0 p0 c0 {1,S}
6 H u0 p0 c0 {2,S}
7 H u0 p0 c0 {2,S}


>  <multiplicity>  (5) 
2

>  <reaction>  (5) 
rxn_418

>  <type>  (5) 
r2

>  <role_mapnums>  (5) 
{}

>  <role_mapidx>  (5) 
{}

>  <ordered_mapped_smiles>  (5) 
[C:1]([C:2]([H:6])[H:7])([H:3])([H:4])[H:5]

>  <level_of_theory>  (5) 
wb97xd/def2tzvp

>  <lot_method>  (5) 
wb97xd

>  <lot_basis>  (5) 
def2tzvp

>  <spin_multiplicity>  (5) 
2.0

>  <optical_isomers>  (5) 
1.0

>  <modes>  (5) 
IdealGasTranslation(mass=(29.0391, 'amu')),         NonlinearRotor(             inertia = ([4.86051, 22.0602, 23.8144

>  <frequency_value>  (5) 
unknown

>  <frequency_units>  (5) 
unknown

>  <frequency_list>  (5) 
unknown

>  <arkane_path>  (5) 
/home/calvin/Dropbox/PersonalFolders/Calvin/HAb_Converged/rxn_418/output/Species/rxn_418_C[CH2]/arkane/output.py

>  <path_exists>  (5) 
True

>  <E0_value>  (5) 
-207679.78865121285

>  <E0_units>  (5) 
kJ/mol

>  <thermo_class>  (5) 
NASA

>  <Cp0_value>  (5) 
33.257888

>  <Cp0_units>  (5) 
J/(mol*K)

>  <CpInf_value>  (5) 
157.97496800000002

>  <CpInf_units>  (5) 
J/(mol*K)

>  <Tmin_value>  (5) 
10.0

>  <Tmin_units>  (5) 
K

>  <Tmax_value>  (5) 
3000.0

>  <Tmax_units>  (5) 
K

>  <polynomials>  (5) 
[{"name": "polynomial1", "class": "NASAPolynomial", "Tmin_value": 10.0, "Tmin_units": "K", "Tmax_value": 487.87976470861213, "Tmax_units": "K", "coeffs": [3.9121871353579607, 0.009303342355112522, -1.0632548237956822e-05, 4.8831908404358495e-08, -4.7450160133634566e-11, -24978109.370781355, 5.932423398139755]}, {"name": "polynomial2", "class": "NASAPolynomial", "Tmin_value": 487.87976470861213, "Tmin_units": "K", "Tmax_value": 3000.0, "Tmax_units": "K", "coeffs": [1.255601804674027, 0.02015925973571526, -1.042095542288469e-05, 2.645655029251924e-09, -2.6467461504495006e-13, -24977720.132981308, 18.174806831505954]}]

>  <H298_value>  (5) 
-49633.563072244775

>  <H298_units>  (5) 
kcal/mol

>  <S298_value>  (5) 
61.32124798502571

>  <S298_units>  (5) 
cal/(mol*K)

>  <Cp_T_value_list>  (5) 
[13.275286080102546, 15.585331501205383, 17.97260864331377, 20.143861899983392, 23.766518336877798, 26.578661465366384, 31.07297867985595, 33.426295758137194, 34.588101279891]

>  <Cp_T_units>  (5) 
cal/(mol*K)

>  <T_list>  (5) 
[300.0, 400.0, 500.0, 600.0, 800.0, 1000.0, 1500.0, 2000.0, 2400.0]

>  <T_units>  (5) 
K

>  <yaml_path>  (5) 
/home/calvin/Dropbox/PersonalFolders/Calvin/HAb_Converged/rxn_418/output/Species/rxn_418_C[CH2]/rxn_418_CCH2.yml

>  <frequencies_cm1>  (5) 
[107.07690209476, 475.05117745227994, 809.2398850354, 971.27327064612, 1064.95268438156, 1183.6279246817999, 1386.8220203006, 1452.9442219468801, 1466.90480310244, 1470.74344789632, 2948.7315653052397, 3035.3173832051198, 3081.4978594821196, 3128.7358514984, 3230.1062887922394]

>  <ZPE_kJmol>  (5) 
154.3962225328414

>  <E_elec_kJmol>  (5) 
-207834.1848737457

>  <E0_minus_Eelec_plus_ZPE_kJmol>  (5) 
0.0

>  <rxn>  (5) 
rxn_418

>  <species_type>  (5) 
r1

>  <species_folder>  (5) 
rxn_418_C[CH2]

>  <frequencies_cm1_list>  (5) 
[107.07690209476, 475.05117745227994, 809.2398850354, 971.27327064612, 1064.95268438156, 1183.6279246817999, 1386.8220203006, 1452.9442219468801, 1466.90480310244, 1470.74344789632, 2948.7315653052397, 3035.3173832051198, 3081.4978594821196, 3128.7358514984, 3230.1062887922394]

>  <E0_kJmol>  (5) 
-207680

>  <H298_kJmol>  (5) 
-207667

$$$$
