
     RDKit          3D

  9  8  0  0  0  0  0  0  0  0999 V2000
   -0.7555   -1.3321   -0.8855 C   0  0  0  0  0  0  0  0  0  1  0  0
   -0.3430   -0.6197    0.3667 C   0  0  0  0  0  0  0  0  0  2  0  0
    0.4677    0.9251    0.2678 S   0  0  0  0  0  0  0  0  0  3  0  0
    0.0979   -1.4661   -1.5536 H   0  0  0  0  0  0  0  0  0  4  0  0
   -1.5234   -0.7692   -1.4244 H   0  0  0  0  0  0  0  0  0  5  0  0
   -1.1564   -2.3184   -0.6473 H   0  0  0  0  0  0  0  0  0  6  0  0
    0.3837   -1.3219    0.7693 H   0  0  0  0  0  0  0  0  0  7  0  0
   -1.0704   -0.6058    1.1753 H   0  0  0  0  0  0  0  0  0  8  0  0
    1.2440    0.6304   -0.7859 H   0  0  0  0  0  0  0  0  0  9  0  0
  1  5  1  0
  1  4  1  0
  1  6  1  0
  1  2  1  0
  2  7  1  0
  2  3  1  0
  2  8  1  0
  3  9  1  0
M  END
>  <rmg_smiles>  (1) 
CCS

>  <rmg_adjacency_list>  (1) 
1 S u0 p2 c0 {2,S} {9,S}
2 C u0 p0 c0 {1,S} {3,S} {4,S} {5,S}
3 C u0 p0 c0 {2,S} {6,S} {7,S} {8,S}
4 H u0 p0 c0 {2,S}
5 H u0 p0 c0 {2,S}
6 H u0 p0 c0 {3,S}
7 H u0 p0 c0 {3,S}
8 H u0 p0 c0 {3,S}
9 H u0 p0 c0 {1,S}


>  <multiplicity>  (1) 
1

>  <reaction>  (1) 
rxn_1895

>  <type>  (1) 
r1h

>  <role_mapnums>  (1) 
{"r1h_a": 2, "r1h_h": 7}

>  <role_mapidx>  (1) 
{"r1h_a": 1, "r1h_h": 6}

>  <ordered_mapped_smiles>  (1) 
[C:1]([C:2]([S:3][H:9])([H:7])[H:8])([H:4])([H:5])[H:6]

>  <mol_properties>  (1) 
{"1": {"label": "donator", "atom_type": "Cs"}, "6": {"label": "d_hydrogen", "atom_type": "H0"}}

>  <level_of_theory>  (1) 
wb97xd/def2tzvp

>  <lot_method>  (1) 
wb97xd

>  <lot_basis>  (1) 
def2tzvp

>  <spin_multiplicity>  (1) 
1.0

>  <optical_isomers>  (1) 
2.0

>  <modes>  (1) 
IdealGasTranslation(mass=(62.019, 'amu')),         NonlinearRotor(             inertia = ([17.3187, 95.472, 104.033

>  <frequency_value>  (1) 
unknown

>  <frequency_units>  (1) 
unknown

>  <frequency_list>  (1) 
unknown

>  <arkane_path>  (1) 
/home/calvin/Dropbox/PersonalFolders/Calvin/HAb_Converged/rxn_1895/output/Species/rxn_1895_CCS/arkane/output.py

>  <path_exists>  (1) 
True

>  <E0_value>  (1) 
-1254880.5529024522

>  <E0_units>  (1) 
kJ/mol

>  <thermo_class>  (1) 
NASA

>  <Cp0_value>  (1) 
33.257888

>  <Cp0_units>  (1) 
J/(mol*K)

>  <CpInf_value>  (1) 
207.8618

>  <CpInf_units>  (1) 
J/(mol*K)

>  <Tmin_value>  (1) 
10.0

>  <Tmin_units>  (1) 
K

>  <Tmax_value>  (1) 
3000.0

>  <Tmax_units>  (1) 
K

>  <polynomials>  (1) 
[{"name": "polynomial1", "class": "NASAPolynomial", "Tmin_value": 10.0, "Tmin_units": "K", "Tmax_value": 456.94948299224984, "Tmax_units": "K", "coeffs": [3.912577314484764, 0.006155835235539537, 5.7903825438107485e-05, -1.0305013689181765e-07, 5.821300208274409e-11, -150927266.1091598, 9.021117963799174]}, {"name": "polynomial2", "class": "NASAPolynomial", "Tmin_value": 456.94948299224984, "Tmin_units": "K", "Tmax_value": 3000.0, "Tmax_units": "K", "coeffs": [1.355855578836548, 0.028536757084491292, -1.5565109771775804e-05, 4.138069148493327e-09, -4.3071999280991065e-13, -150927032.45208073, 19.35342692911781]}]

>  <H298_value>  (1) 
-299920.11857407144

>  <H298_units>  (1) 
kcal/mol

>  <S298_value>  (1) 
69.39854649104441

>  <S298_units>  (1) 
cal/(mol*K)

>  <Cp_T_value_list>  (1) 
[17.20889788741788, 20.934361161930582, 24.290211927280414, 27.249513376784144, 32.124901067035445, 35.83897523204632, 41.58221183782978, 44.477584292835935, 45.911331144631184]

>  <Cp_T_units>  (1) 
cal/(mol*K)

>  <T_list>  (1) 
[300.0, 400.0, 500.0, 600.0, 800.0, 1000.0, 1500.0, 2000.0, 2400.0]

>  <T_units>  (1) 
K

>  <yaml_path>  (1) 
/home/calvin/Dropbox/PersonalFolders/Calvin/HAb_Converged/rxn_1895/output/Species/rxn_1895_CCS/rxn_1895_CCS.yml

>  <frequencies_cm1>  (1) 
[202.32885546847996, 256.50936964327997, 331.52431727896, 667.1482247939599, 735.969151671, 875.5955641825599, 988.159187548, 1063.6273562148, 1117.6087278153198, 1273.38628979952, 1303.10660226448, 1402.5542836687198, 1466.616389719, 1477.4456255686398, 1483.85938985752, 2700.25656848636, 3013.3430301811195, 3044.51914353392, 3080.6051513905195, 3088.40604671404, 3107.9357529641197]

>  <ZPE_kJmol>  (1) 
195.4728851436989

>  <E_elec_kJmol>  (1) 
-1255076.025787596

>  <E0_minus_Eelec_plus_ZPE_kJmol>  (1) 
0.0

>  <rxn>  (1) 
rxn_1895

>  <species_type>  (1) 
r1

>  <species_folder>  (1) 
rxn_1895_CCS

>  <frequencies_cm1_list>  (1) 
[202.32885546847996, 256.50936964327997, 331.52431727896, 667.1482247939599, 735.969151671, 875.5955641825599, 988.159187548, 1063.6273562148, 1117.6087278153198, 1273.38628979952, 1303.10660226448, 1402.5542836687198, 1466.616389719, 1477.4456255686398, 1483.85938985752, 2700.25656848636, 3013.3430301811195, 3044.51914353392, 3080.6051513905195, 3088.40604671404, 3107.9357529641197]

>  <E0_kJmol>  (1) 
-1.25488e+06

>  <H298_kJmol>  (1) 
-1.25487e+06

$$$$

     RDKit          3D

  8  7  0  0  0  0  0  0  0  0999 V2000
    1.1415    1.1922   -0.5721 S   0  0  0  0  0  0  0  0  0  1  0  0
   -0.0672    0.9835    0.7188 C   0  0  0  0  0  0  0  0  0  2  0  0
   -0.7112   -0.3006    0.9187 C   0  0  0  0  0  0  0  0  0  3  0  0
   -0.8106   -1.5408   -0.1270 S   0  0  0  0  0  0  0  0  0  4  0  0
    0.7518    0.1012   -1.2591 H   0  0  0  0  0  0  0  0  0  5  0  0
    0.2782    1.4449    1.6430 H   0  0  0  0  0  0  0  0  0  6  0  0
   -1.2374   -0.3723    1.8709 H   0  0  0  0  0  0  0  0  0  7  0  0
   -0.8925    1.6486    0.4680 H   0  0  0  0  0  0  0  0  0  8  0  0
  1  2  1  0
  1  5  1  0
  2  8  1  0
  2  6  1  0
  2  3  1  0
  3  7  1  0
  3  4  1  0
M  END
>  <rmg_smiles>  (2) 
[S][CH]CS

>  <rmg_adjacency_list>  (2) 
1 S u0 p2 c0 {3,S} {8,S}
2 S u0 p2 c0 {4,S}
3 C u0 p0 c0 {1,S} {4,S} {5,S} {6,S}
4 C u0 p0 c0 {2,S} {3,S} {7,S}
5 H u0 p0 c0 {3,S}
6 H u0 p0 c0 {3,S}
7 H u0 p0 c0 {4,S}
8 H u0 p0 c0 {1,S}


>  <multiplicity>  (2) 
1

>  <reaction>  (2) 
rxn_1895

>  <type>  (2) 
r2h

>  <role_mapnums>  (2) 
{"r2h_a": 2, "r2h_h": 8}

>  <role_mapidx>  (2) 
{"r2h_a": 1, "r2h_h": 7}

>  <ordered_mapped_smiles>  (2) 
[S:1]([C:2]([CH:3]([SH:4])[H:7])([H:6])[H:8])[H:5]

>  <mol_properties>  (2) 
{"1": {"label": "acceptor", "atom_type": "Cs"}, "7": {"label": "a_hydrogen", "atom_type": "H0"}}

>  <level_of_theory>  (2) 
wb97xd/def2tzvp

>  <lot_method>  (2) 
wb97xd

>  <lot_basis>  (2) 
def2tzvp

>  <spin_multiplicity>  (2) 
1.0

>  <optical_isomers>  (2) 
2.0

>  <modes>  (2) 
IdealGasTranslation(mass=(91.9754, 'amu')),         NonlinearRotor(             inertia = ([28.3667, 272.927, 283.105

>  <frequency_value>  (2) 
unknown

>  <frequency_units>  (2) 
unknown

>  <frequency_list>  (2) 
unknown

>  <arkane_path>  (2) 
/home/calvin/Dropbox/PersonalFolders/Calvin/HAb_Converged/rxn_1895/output/Species/rxn_1895_SCC=S/arkane/output.py

>  <path_exists>  (2) 
True

>  <E0_value>  (2) 
-2297161.3466777904

>  <E0_units>  (2) 
kJ/mol

>  <thermo_class>  (2) 
NASA

>  <Cp0_value>  (2) 
33.257888

>  <Cp0_units>  (2) 
J/(mol*K)

>  <CpInf_value>  (2) 
182.918384

>  <CpInf_units>  (2) 
J/(mol*K)

>  <Tmin_value>  (2) 
10.0

>  <Tmin_units>  (2) 
K

>  <Tmax_value>  (2) 
3000.0

>  <Tmax_units>  (2) 
K

>  <polynomials>  (2) 
[{"name": "polynomial1", "class": "NASAPolynomial", "Tmin_value": 10.0, "Tmin_units": "K", "Tmax_value": 567.3985410848345, "Tmax_units": "K", "coeffs": [3.827762255477858, 0.0148243677948894, 3.0300423651881606e-05, -6.991525360518275e-08, 4.130808720690426e-11, -276284690.67862564, 11.183445317954005]}, {"name": "polynomial2", "class": "NASAPolynomial", "Tmin_value": 567.3985410848345, "Tmin_units": "K", "Tmax_value": 3000.0, "Tmax_units": "K", "coeffs": [3.2084105787689583, 0.02574254947061171, -1.5884331254161568e-05, 4.70098747996834e-09, -5.353239956477021e-13, -276284725.86150384, 12.891088264548623]}]

>  <H298_value>  (2) 
-549030.8628187295

>  <H298_units>  (2) 
kcal/mol

>  <S298_value>  (2) 
75.94771372042368

>  <S298_units>  (2) 
cal/(mol*K)

>  <Cp_T_value_list>  (2) 
[18.77710306271184, 22.233836008986053, 25.15286918611867, 27.585638185889195, 31.445784266887134, 34.24412324427564, 38.230364497139824, 40.139386212339545, 41.179820759380895]

>  <Cp_T_units>  (2) 
cal/(mol*K)

>  <T_list>  (2) 
[300.0, 400.0, 500.0, 600.0, 800.0, 1000.0, 1500.0, 2000.0, 2400.0]

>  <T_units>  (2) 
K

>  <yaml_path>  (2) 
/home/calvin/Dropbox/PersonalFolders/Calvin/HAb_Converged/rxn_1895/output/Species/rxn_1895_SCC=S/rxn_1895_SCC=S.yml

>  <frequencies_cm1>  (2) 
[80.75574736319999, 266.2330208564, 305.26496541528, 376.90135627352, 683.70452640048, 787.8972946608399, 844.3027120793199, 953.5015126379599, 1032.3482380822, 1160.69906069832, 1182.2888625443998, 1236.400706866, 1388.44949582144, 1449.3115867126, 2698.0591331839596, 3041.5869408022795, 3077.6798156442, 3121.4774480151596]

>  <ZPE_kJmol>  (2) 
141.6789408228882

>  <E_elec_kJmol>  (2) 
-2297303.025618613

>  <E0_minus_Eelec_plus_ZPE_kJmol>  (2) 
0.0

>  <rxn>  (2) 
rxn_1895

>  <species_type>  (2) 
p0

>  <species_folder>  (2) 
rxn_1895_SCC=S

>  <frequencies_cm1_list>  (2) 
[80.75574736319999, 266.2330208564, 305.26496541528, 376.90135627352, 683.70452640048, 787.8972946608399, 844.3027120793199, 953.5015126379599, 1032.3482380822, 1160.69906069832, 1182.2888625443998, 1236.400706866, 1388.44949582144, 1449.3115867126, 2698.0591331839596, 3041.5869408022795, 3077.6798156442, 3121.4774480151596]

>  <E0_kJmol>  (2) 
-2.29716e+06

>  <H298_kJmol>  (2) 
-2.29715e+06

$$$$

     RDKit          3D

 16 14  0  0  0  0  0  0  0  0999 V2000
    2.2337   -0.0979   -0.8073 S   0  0  0  0  0  0  0  0  0  1  0  0
    1.0250   -0.3067    0.4836 C   0  0  0  0  0  0  0  0  0  2  0  0
    0.3810   -1.5907    0.6835 C   0  0  0  0  0  0  0  0  0  3  0  0
    0.2817   -2.8310   -0.3622 S   0  0  0  0  0  0  0  0  0  4  0  0
    1.8441   -1.1889   -1.4943 H   0  0  0  0  0  0  0  0  0  5  0  0
    1.3705    0.1548    1.4078 H   0  0  0  0  0  0  0  0  0  6  0  0
   -0.1452   -1.6625    1.6358 H   0  0  0  0  0  0  0  0  0  7  0  0
   -1.3336    0.7084   -1.6081 C   0  0  0  0  0  0  0  0  0  8  0  0
   -0.9211    1.4209   -0.3559 C   0  0  0  0  0  3  0  0  0  9  0  0
   -0.1104    2.9657   -0.4547 S   0  0  0  0  0  0  0  0  0 10  0  0
   -0.4802    0.5745   -2.2762 H   0  0  0  0  0  0  0  0  0 11  0  0
   -2.1016    1.2714   -2.1469 H   0  0  0  0  0  0  0  0  0 12  0  0
   -1.7346   -0.2778   -1.3698 H   0  0  0  0  0  0  0  0  0 13  0  0
    0.0706    0.4626    0.1936 H   0  0  0  0  0  0  0  0  0 14  0  0
   -1.6486    1.4348    0.4528 H   0  0  0  0  0  0  0  0  0 15  0  0
    0.6658    2.6710   -1.5084 H   0  0  0  0  0  0  0  0  0 16  0  0
  1  2  1  0
  1  5  1  0
  2  6  1  0
  2  3  1  0
  2 14  1  0
  3  7  1  0
  3  4  1  0
  8  9  1  0
  8 13  1  0
  8 11  1  0
  8 12  1  0
  9 10  1  0
  9 15  1  0
 10 16  1  0
M  RAD  1   9   2
M  END
>  <rmg_smiles>  (3) 
[S][CH]CS.C[CH]S

>  <rmg_adjacency_list>  (3) 
multiplicity 2
1  S u0 p2 c0 {4,S} {15,S}
2  S u0 p2 c0 {6,S} {16,S}
3  S u0 p2 c0 {7,S}
4  C u0 p0 c0 {1,S} {7,S} {8,S} {9,S}
5  C u0 p0 c0 {6,S} {10,S} {11,S} {12,S}
6  C u1 p0 c0 {2,S} {5,S} {13,S}
7  C u0 p0 c0 {3,S} {4,S} {14,S}
8  H u0 p0 c0 {4,S}
9  H u0 p0 c0 {4,S}
10 H u0 p0 c0 {5,S}
11 H u0 p0 c0 {5,S}
12 H u0 p0 c0 {5,S}
13 H u0 p0 c0 {6,S}
14 H u0 p0 c0 {7,S}
15 H u0 p0 c0 {1,S}
16 H u0 p0 c0 {2,S}


>  <multiplicity>  (3) 
2

>  <reaction>  (3) 
rxn_1895

>  <type>  (3) 
ts

>  <role_mapnums>  (3) 
{"*2": 14, "*1": 9, "*3": 2, "*0": 3, "*4": 10}

>  <role_mapidx>  (3) 
{"*2": 13, "*1": 8, "*3": 1, "*0": 2, "*4": 9}

>  <ordered_mapped_smiles>  (3) 
[S:1]([C:2]([CH:3]([SH:4])[H:7])([H:6])[H:14])[H:5].[C:8]([C:9]([S:10][H:16])[H:15])([H:11])([H:12])[H:13]

>  <mol_properties>  (3) 
{"1": {"label": "*3", "atom_type": "Cs"}, "2": {"label": "*0", "atom_type": "Cs"}, "8": {"label": "*1", "atom_type": "Cs"}, "9": {"label": "*4", "atom_type": "S2s"}, "13": {"label": "*2", "atom_type": "H0"}}

>  <level_of_theory>  (3) 
wb97xd/def2tzvp

>  <lot_method>  (3) 
wb97xd

>  <lot_basis>  (3) 
def2tzvp

>  <spin_multiplicity>  (3) 
2.0

>  <optical_isomers>  (3) 
2.0

>  <modes>  (3) 
IdealGasTranslation(mass=(152.987, 'amu')),         NonlinearRotor(             inertia = ([239.898, 697.787, 816.418

>  <frequency_value>  (3) 
-1378.11

>  <frequency_units>  (3) 
cm^-1

>  <frequency_list>  (3) 
unknown

>  <arkane_path>  (3) 
/home/calvin/Dropbox/PersonalFolders/Calvin/HAb_Converged/rxn_1895/output/rxns/TS0/arkane/output.py

>  <path_exists>  (3) 
True

>  <E0_value>  (3) 
-3550330.0

>  <E0_units>  (3) 
kJ/mol

>  <thermo_class>  (3) 
unknown

>  <Cp0_value>  (3) 
unknown

>  <Cp0_units>  (3) 
unknown

>  <CpInf_value>  (3) 
unknown

>  <CpInf_units>  (3) 
unknown

>  <Tmin_value>  (3) 
unknown

>  <Tmin_units>  (3) 
unknown

>  <Tmax_value>  (3) 
unknown

>  <Tmax_units>  (3) 
unknown

>  <polynomials>  (3) 
unknown

>  <H298_value>  (3) 
unknown

>  <H298_units>  (3) 
unknown

>  <S298_value>  (3) 
unknown

>  <S298_units>  (3) 
unknown

>  <Cp_T_value_list>  (3) 
unknown

>  <Cp_T_units>  (3) 
unknown

>  <T_list>  (3) 
unknown

>  <T_units>  (3) 
unknown

>  <yaml_path>  (3) 
unknown

>  <frequencies_cm1>  (3) 
unknown

>  <ZPE_kJmol>  (3) 
unknown

>  <E_elec_kJmol>  (3) 
unknown

>  <E0_minus_Eelec_plus_ZPE_kJmol>  (3) 
unknown

>  <rxn>  (3) 
unknown

>  <species_type>  (3) 
unknown

>  <species_folder>  (3) 
unknown

>  <frequencies_cm1_list>  (3) 
[]

>  <ts_imag_freq_cm1>  (3) 
-1394.8467

>  <ts_freq_out_path>  (3) 
/home/calvin/Dropbox/PersonalFolders/Calvin/HAb_Converged/rxn_1895/output/rxns/TS0/geometry/freq.out

>  <E0_kJmol>  (3) 
-3.55033e+06

>  <H298_kJmol>  (3) 
unknown

$$$$

     RDKit          3D

  8  7  0  0  0  0  0  0  0  0999 V2000
   -1.0607    0.1793   -0.1423 C   0  0  0  0  0  0  0  0  0  1  0  0
    0.2796    0.0327    0.4820 C   0  0  0  0  0  3  0  0  0  2  0  0
    0.8817   -1.4663    1.0791 S   0  0  0  0  0  0  0  0  0  3  0  0
   -1.3043    1.2328   -0.2850 H   0  0  0  0  0  0  0  0  0  4  0  0
   -1.8444   -0.2641    0.4799 H   0  0  0  0  0  0  0  0  0  5  0  0
   -1.1164   -0.3100   -1.1237 H   0  0  0  0  0  0  0  0  0  6  0  0
    1.0449    0.7826    0.3391 H   0  0  0  0  0  0  0  0  0  7  0  0
   -0.2993   -2.0726    1.2718 H   0  0  0  0  0  0  0  0  0  8  0  0
  1  5  1  0
  1  4  1  0
  1  6  1  0
  1  2  1  0
  2  7  1  0
  2  3  1  0
  3  8  1  0
M  RAD  1   2   2
M  END
>  <rmg_smiles>  (4) 
C[CH]S

>  <rmg_adjacency_list>  (4) 
multiplicity 2
1 S u0 p2 c0 {3,S} {8,S}
2 C u0 p0 c0 {3,S} {4,S} {5,S} {6,S}
3 C u1 p0 c0 {1,S} {2,S} {7,S}
4 H u0 p0 c0 {2,S}
5 H u0 p0 c0 {2,S}
6 H u0 p0 c0 {2,S}
7 H u0 p0 c0 {3,S}
8 H u0 p0 c0 {1,S}


>  <multiplicity>  (4) 
2

>  <reaction>  (4) 
rxn_1895

>  <type>  (4) 
r1

>  <role_mapnums>  (4) 
{}

>  <role_mapidx>  (4) 
{}

>  <ordered_mapped_smiles>  (4) 
[C:1]([C:2]([S:3][H:8])[H:7])([H:4])([H:5])[H:6]

>  <level_of_theory>  (4) 
wb97xd/def2tzvp

>  <lot_method>  (4) 
wb97xd

>  <lot_basis>  (4) 
def2tzvp

>  <spin_multiplicity>  (4) 
2.0

>  <optical_isomers>  (4) 
2.0

>  <modes>  (4) 
IdealGasTranslation(mass=(61.0112, 'amu')),         NonlinearRotor(             inertia = ([13.046, 92.7553, 102.244

>  <frequency_value>  (4) 
unknown

>  <frequency_units>  (4) 
unknown

>  <frequency_list>  (4) 
unknown

>  <arkane_path>  (4) 
/home/calvin/Dropbox/PersonalFolders/Calvin/HAb_Converged/rxn_1895/output/Species/rxn_1895_C[CH]S/arkane/output.py

>  <path_exists>  (4) 
True

>  <E0_value>  (4) 
-1253184.5981829516

>  <E0_units>  (4) 
kJ/mol

>  <thermo_class>  (4) 
NASA

>  <Cp0_value>  (4) 
33.257888

>  <Cp0_units>  (4) 
J/(mol*K)

>  <CpInf_value>  (4) 
182.918384

>  <CpInf_units>  (4) 
J/(mol*K)

>  <Tmin_value>  (4) 
10.0

>  <Tmin_units>  (4) 
K

>  <Tmax_value>  (4) 
3000.0

>  <Tmax_units>  (4) 
K

>  <polynomials>  (4) 
[{"name": "polynomial1", "class": "NASAPolynomial", "Tmin_value": 10.0, "Tmin_units": "K", "Tmax_value": 413.8010480726284, "Tmax_units": "K", "coeffs": [3.7950295729261647, 0.016457708367529925, 9.731711480509379e-06, -3.2015572359360355e-08, 2.0934508459004603e-11, -150723288.9505719, 9.662663267236853]}, {"name": "polynomial2", "class": "NASAPolynomial", "Tmin_value": 413.8010480726284, "Tmin_units": "K", "Tmax_value": 3000.0, "Tmax_units": "K", "coeffs": [3.171701388229353, 0.02248310275825266, -1.2109939387600553e-05, 3.1731034874071525e-09, -3.249234972610705e-13, -150723237.3638374, 12.119854918634292]}]

>  <H298_value>  (4) 
-299514.53540410154

>  <H298_units>  (4) 
kcal/mol

>  <S298_value>  (4) 
72.29191673058813

>  <S298_units>  (4) 
cal/(mol*K)

>  <Cp_T_value_list>  (4) 
[17.712657489437476, 20.710891785101634, 23.373717884324098, 25.72491502627314, 29.60811043312427, 32.57636509573052, 37.18717346712741, 39.514014084536406, 40.66360633897774]

>  <Cp_T_units>  (4) 
cal/(mol*K)

>  <T_list>  (4) 
[300.0, 400.0, 500.0, 600.0, 800.0, 1000.0, 1500.0, 2000.0, 2400.0]

>  <T_units>  (4) 
K

>  <yaml_path>  (4) 
/home/calvin/Dropbox/PersonalFolders/Calvin/HAb_Converged/rxn_1895/output/Species/rxn_1895_C[CH]S/rxn_1895_CCHS.yml

>  <frequencies_cm1>  (4) 
[128.26155180696, 206.51084952836, 328.47537579688, 383.06104210556, 719.5433227855599, 910.4180467402799, 999.9292003864799, 1062.5698404755199, 1120.95294966616, 1318.91440247112, 1398.79117571336, 1459.19317858808, 1469.92627664324, 2677.2315667084, 2962.1771225617995, 3023.7808478675192, 3086.80603913448, 3183.9601474418396]

>  <ZPE_kJmol>  (4) 
158.14937342870658

>  <E_elec_kJmol>  (4) 
-1253342.7475563802

>  <E0_minus_Eelec_plus_ZPE_kJmol>  (4) 
0.0

>  <rxn>  (4) 
rxn_1895

>  <species_type>  (4) 
p1

>  <species_folder>  (4) 
rxn_1895_C[CH]S

>  <frequencies_cm1_list>  (4) 
[128.26155180696, 206.51084952836, 328.47537579688, 383.06104210556, 719.5433227855599, 910.4180467402799, 999.9292003864799, 1062.5698404755199, 1120.95294966616, 1318.91440247112, 1398.79117571336, 1459.19317858808, 1469.92627664324, 2677.2315667084, 2962.1771225617995, 3023.7808478675192, 3086.80603913448, 3183.9601474418396]

>  <E0_kJmol>  (4) 
-1.25318e+06

>  <H298_kJmol>  (4) 
-1.25317e+06

$$$$

     RDKit          3D

  7  6  0  0  0  0  0  0  0  0999 V2000
    1.8092   -0.3013   -0.2242 S   0  0  0  0  0  0  0  0  0  1  0  0
    0.1552   -0.6967   -0.1137 C   0  0  0  0  0  0  0  0  0  2  0  0
   -0.8921    0.1788    0.1148 C   0  0  0  0  0  0  0  0  0  3  0  0
   -0.7548    1.8245    0.3328 S   0  0  0  0  0  1  0  0  0  4  0  0
    1.6168    1.0210   -0.0187 H   0  0  0  0  0  0  0  0  0  5  0  0
   -0.0550   -1.7522   -0.2412 H   0  0  0  0  0  0  0  0  0  6  0  0
   -1.8791   -0.2740    0.1502 H   0  0  0  0  0  0  0  0  0  7  0  0
  1  2  1  0
  1  5  1  0
  2  6  1  0
  2  3  1  0
  3  7  1  0
  3  4  1  0
M  RAD  1   4   2
M  END
>  <rmg_smiles>  (5) 
[S][CH][CH]S

>  <rmg_adjacency_list>  (5) 
multiplicity 2
1 S u0 p2 c0 {3,S} {7,S}
2 S u1 p2 c0 {4,S}
3 C u0 p0 c0 {1,S} {4,S} {5,S}
4 C u0 p0 c0 {2,S} {3,S} {6,S}
5 H u0 p0 c0 {3,S}
6 H u0 p0 c0 {4,S}
7 H u0 p0 c0 {1,S}


>  <multiplicity>  (5) 
2

>  <reaction>  (5) 
rxn_1895

>  <type>  (5) 
r2

>  <role_mapnums>  (5) 
{}

>  <role_mapidx>  (5) 
{}

>  <ordered_mapped_smiles>  (5) 
[S:1]([CH:2]([CH:3]([S:4])[H:7])[H:6])[H:5]

>  <level_of_theory>  (5) 
wb97xd/def2tzvp

>  <lot_method>  (5) 
wb97xd

>  <lot_basis>  (5) 
def2tzvp

>  <spin_multiplicity>  (5) 
2.0

>  <optical_isomers>  (5) 
1.0

>  <modes>  (5) 
IdealGasTranslation(mass=(90.9676, 'amu')),         NonlinearRotor(             inertia = ([41.4097, 197.136, 238.545

>  <frequency_value>  (5) 
unknown

>  <frequency_units>  (5) 
unknown

>  <frequency_list>  (5) 
unknown

>  <arkane_path>  (5) 
/home/calvin/Dropbox/PersonalFolders/Calvin/HAb_Converged/rxn_1895/output/Species/rxn_1895_S[CH]C=S/arkane/output.py

>  <path_exists>  (5) 
True

>  <E0_value>  (5) 
-2295558.499177116

>  <E0_units>  (5) 
kJ/mol

>  <thermo_class>  (5) 
NASA

>  <Cp0_value>  (5) 
33.257888

>  <Cp0_units>  (5) 
J/(mol*K)

>  <CpInf_value>  (5) 
157.97496800000002

>  <CpInf_units>  (5) 
J/(mol*K)

>  <Tmin_value>  (5) 
10.0

>  <Tmin_units>  (5) 
K

>  <Tmax_value>  (5) 
3000.0

>  <Tmax_units>  (5) 
K

>  <polynomials>  (5) 
[{"name": "polynomial1", "class": "NASAPolynomial", "Tmin_value": 10.0, "Tmin_units": "K", "Tmax_value": 554.7124392285518, "Tmax_units": "K", "coeffs": [3.9306502353930965, 0.004133922870558618, 7.817124796321941e-05, -1.5845467344039594e-07, 9.591038319478953e-11, -276091912.08472174, 10.601050984557745]}, {"name": "polynomial2", "class": "NASAPolynomial", "Tmin_value": 554.7124392285518, "Tmin_units": "K", "Tmax_value": 3000.0, "Tmax_units": "K", "coeffs": [3.4410377237542638, 0.02325799354743955, -1.5708672851982145e-05, 5.0491053726302925e-09, -6.172994321373326e-13, -276092097.67652106, 10.512139558674505]}]

>  <H298_value>  (5) 
-548648.1110275815

>  <H298_units>  (5) 
kcal/mol

>  <S298_value>  (5) 
72.51024917341623

>  <S298_units>  (5) 
cal/(mol*K)

>  <Cp_T_value_list>  (5) 
[17.298309340361524, 20.678524612659682, 23.305934853423146, 25.33949880526343, 28.469074134584886, 30.647025274417317, 33.58213330177607, 35.051114287355276, 35.96165263240023]

>  <Cp_T_units>  (5) 
cal/(mol*K)

>  <T_list>  (5) 
[300.0, 400.0, 500.0, 600.0, 800.0, 1000.0, 1500.0, 2000.0, 2400.0]

>  <T_units>  (5) 
K

>  <yaml_path>  (5) 
/home/calvin/Dropbox/PersonalFolders/Calvin/HAb_Converged/rxn_1895/output/Species/rxn_1895_S[CH]C=S/rxn_1895_SCHC=S.yml

>  <frequencies_cm1>  (5) 
[200.51597134399998, 323.99123438291997, 464.0365329989999, 549.3038897174399, 726.3828401642799, 743.81811589176, 881.4256347192398, 918.3837497114799, 977.1651440506799, 1183.8339342414001, 1348.94372927548, 1411.0968134068, 2564.15291944396, 3116.1761353481197, 3166.7652162005597]

>  <ZPE_kJmol>  (5) 
111.10913739733977

>  <E_elec_kJmol>  (5) 
-2295669.608314513

>  <E0_minus_Eelec_plus_ZPE_kJmol>  (5) 
0.0

>  <rxn>  (5) 
rxn_1895

>  <species_type>  (5) 
r0

>  <species_folder>  (5) 
rxn_1895_S[CH]C=S

>  <frequencies_cm1_list>  (5) 
[200.51597134399998, 323.99123438291997, 464.0365329989999, 549.3038897174399, 726.3828401642799, 743.81811589176, 881.4256347192398, 918.3837497114799, 977.1651440506799, 1183.8339342414001, 1348.94372927548, 1411.0968134068, 2564.15291944396, 3116.1761353481197, 3166.7652162005597]

>  <E0_kJmol>  (5) 
-2.29556e+06

>  <H298_kJmol>  (5) 
-2.29554e+06

$$$$
