
     RDKit          3D

 15 15  0  0  0  0  0  0  0  0999 V2000
    0.6773   -0.3577    2.2681 C   0  0  0  0  0  0  0  0  0  1  0  0
    0.3212   -0.1139    0.8939 C   0  0  0  0  0  0  0  0  0  2  0  0
   -0.4002    1.0330    0.5300 C   0  0  0  0  0  0  0  0  0  3  0  0
   -0.8273    1.2174   -0.7705 C   0  0  0  0  0  0  0  0  0  4  0  0
   -0.5521    0.2591   -1.7370 C   0  0  0  0  0  0  0  0  0  5  0  0
    0.1645   -0.8812   -1.3955 C   0  0  0  0  0  0  0  0  0  6  0  0
    0.5967   -1.0683   -0.0973 C   0  0  0  0  0  0  0  0  0  7  0  0
   -0.1819   -0.9276    2.6071 H   0  0  0  0  0  0  0  0  0  8  0  0
    1.4369   -1.1051    2.4727 H   0  0  0  0  0  0  0  0  0  9  0  0
    0.6528    0.4817    2.9560 H   0  0  0  0  0  0  0  0  0 10  0  0
   -0.6253    1.7777    1.2846 H   0  0  0  0  0  0  0  0  0 11  0  0
   -1.3852    2.1070   -1.0335 H   0  0  0  0  0  0  0  0  0 12  0  0
   -0.8935    0.4010   -2.7543 H   0  0  0  0  0  0  0  0  0 13  0  0
    0.3817   -1.6287   -2.1479 H   0  0  0  0  0  0  0  0  0 14  0  0
    1.1447   -1.9632    0.1715 H   0  0  0  0  0  0  0  0  0 15  0  0
  1 10  1  0
  1  8  1  0
  1  9  1  0
  1  2  1  0
  2  7  1  0
  2  3  1  0
  3  4  1  0
  3 11  1  0
  4  5  1  0
  4 12  1  0
  5  6  1  0
  5 13  1  0
  6 14  1  0
  6  7  1  0
  7 15  1  0
M  END
>  <rmg_smiles>  (1) 
CC1[CH][CH][CH][CH][CH]1

>  <rmg_adjacency_list>  (1) 
1  C u0 p0 c0 {2,S} {8,S} {9,S} {10,S}
2  C u0 p0 c0 {1,S} {3,S} {4,S}
3  C u0 p0 c0 {2,S} {5,S} {11,S}
4  C u0 p0 c0 {2,S} {7,S} {15,S}
5  C u0 p0 c0 {3,S} {6,S} {12,S}
6  C u0 p0 c0 {5,S} {7,S} {13,S}
7  C u0 p0 c0 {4,S} {6,S} {14,S}
8  H u0 p0 c0 {1,S}
9  H u0 p0 c0 {1,S}
10 H u0 p0 c0 {1,S}
11 H u0 p0 c0 {3,S}
12 H u0 p0 c0 {5,S}
13 H u0 p0 c0 {6,S}
14 H u0 p0 c0 {7,S}
15 H u0 p0 c0 {4,S}


>  <multiplicity>  (1) 
1

>  <reaction>  (1) 
rxn_1465

>  <type>  (1) 
r1h

>  <role_mapnums>  (1) 
{"r1h_a": 1, "r1h_h": 8}

>  <role_mapidx>  (1) 
{"r1h_a": 0, "r1h_h": 7}

>  <ordered_mapped_smiles>  (1) 
[C:1]([CH:2]1[CH:3]([H:11])[CH:4]([H:12])[CH:5]([H:13])[CH:6]([H:14])[CH:7]1[H:15])([H:8])([H:9])[H:10]

>  <mol_properties>  (1) 
{"0": {"label": "donator", "atom_type": "Cs"}, "7": {"label": "d_hydrogen", "atom_type": "H0"}}

>  <level_of_theory>  (1) 
wb97xd/def2tzvp

>  <lot_method>  (1) 
wb97xd

>  <lot_basis>  (1) 
def2tzvp

>  <spin_multiplicity>  (1) 
1.0

>  <optical_isomers>  (1) 
1.0

>  <modes>  (1) 
IdealGasTranslation(mass=(92.0626, 'amu')),         NonlinearRotor(             inertia = ([90.1823, 198.896, 285.945

>  <frequency_value>  (1) 
unknown

>  <frequency_units>  (1) 
unknown

>  <frequency_list>  (1) 
unknown

>  <arkane_path>  (1) 
/home/calvin/Dropbox/PersonalFolders/Calvin/HAb_Converged/rxn_1465/output/Species/rxn_1465_Cc1ccccc1/arkane/output.py

>  <path_exists>  (1) 
True

>  <E0_value>  (1) 
-712667.4186954657

>  <E0_units>  (1) 
kJ/mol

>  <thermo_class>  (1) 
NASA

>  <Cp0_value>  (1) 
33.257888

>  <Cp0_units>  (1) 
J/(mol*K)

>  <CpInf_value>  (1) 
357.522296

>  <CpInf_units>  (1) 
J/(mol*K)

>  <Tmin_value>  (1) 
10.0

>  <Tmin_units>  (1) 
K

>  <Tmax_value>  (1) 
3000.0

>  <Tmax_units>  (1) 
K

>  <polynomials>  (1) 
[{"name": "polynomial1", "class": "NASAPolynomial", "Tmin_value": 10.0, "Tmin_units": "K", "Tmax_value": 551.6337437556739, "Tmax_units": "K", "coeffs": [3.980790839095313, 0.0003554759084543946, 0.0001740807555533119, -2.980551059269885e-07, 1.6260016547012624e-10, -85714089.33006716, 11.957866570352502]}, {"name": "polynomial2", "class": "NASAPolynomial", "Tmin_value": 551.6337437556739, "Tmin_units": "K", "Tmax_value": 3000.0, "Tmax_units": "K", "coeffs": [-2.464142884673319, 0.06292217705968887, -3.910410735823183e-05, 1.1617312031768996e-08, -1.3239292319465783e-12, -85713619.1845923, 37.0335001763548]}]

>  <H298_value>  (1) 
-170327.17110881128

>  <H298_units>  (1) 
kcal/mol

>  <S298_value>  (1) 
79.81344471114225

>  <S298_units>  (1) 
cal/(mol*K)

>  <Cp_T_value_list>  (1) 
[25.8819241324838, 33.907584394638754, 40.905333833989275, 46.79760597028022, 56.14405324051195, 62.889739407887795, 72.41562819521319, 76.94346395033827, 79.4531872673492]

>  <Cp_T_units>  (1) 
cal/(mol*K)

>  <T_list>  (1) 
[300.0, 400.0, 500.0, 600.0, 800.0, 1000.0, 1500.0, 2000.0, 2400.0]

>  <T_units>  (1) 
K

>  <yaml_path>  (1) 
/home/calvin/Dropbox/PersonalFolders/Calvin/HAb_Converged/rxn_1465/output/Species/rxn_1465_Cc1ccccc1/rxn_1465_Cc1ccccc1.yml

>  <frequencies_cm1>  (1) 
[32.67311615255999, 208.88682644908, 346.6454189536, 414.1066827372799, 475.62800421915995, 527.95443235756, 633.69913930024, 711.73556047672, 745.6928028841199, 800.1617304423601, 861.8684605278798, 915.5202168330399, 979.4449831769199, 991.60641417864, 997.6768292015198, 1015.82627140228, 1052.7363174972797, 1058.5389200926797, 1109.8078324918, 1173.8974064833599, 1201.1112693065197, 1232.0058362611999, 1316.04400260736, 1349.7815014845198, 1404.03755249784, 1462.1391152903598, 1476.8481978457999, 1495.6225357106798, 1530.4999541509599, 1640.12450779944, 1663.1975784746398, 3015.0391755551595, 3079.01201079628, 3101.631860440359, 3145.0655425893597, 3146.5282104625194, 3159.5205466879593, 3168.9008486350795, 3181.02107772488]

>  <ZPE_kJmol>  (1) 
333.8912309447283

>  <E_elec_kJmol>  (1) 
-713001.3099264104

>  <E0_minus_Eelec_plus_ZPE_kJmol>  (1) 
0.0

>  <rxn>  (1) 
rxn_1465

>  <species_type>  (1) 
r1

>  <species_folder>  (1) 
rxn_1465_Cc1ccccc1

>  <frequencies_cm1_list>  (1) 
[32.67311615255999, 208.88682644908, 346.6454189536, 414.1066827372799, 475.62800421915995, 527.95443235756, 633.69913930024, 711.73556047672, 745.6928028841199, 800.1617304423601, 861.8684605278798, 915.5202168330399, 979.4449831769199, 991.60641417864, 997.6768292015198, 1015.82627140228, 1052.7363174972797, 1058.5389200926797, 1109.8078324918, 1173.8974064833599, 1201.1112693065197, 1232.0058362611999, 1316.04400260736, 1349.7815014845198, 1404.03755249784, 1462.1391152903598, 1476.8481978457999, 1495.6225357106798, 1530.4999541509599, 1640.12450779944, 1663.1975784746398, 3015.0391755551595, 3079.01201079628, 3101.631860440359, 3145.0655425893597, 3146.5282104625194, 3159.5205466879593, 3168.9008486350795, 3181.02107772488]

>  <E0_kJmol>  (1) 
-712667

>  <H298_kJmol>  (1) 
-712649

$$$$

     RDKit          3D

  8  7  0  0  0  0  0  0  0  0999 V2000
    1.1303   -1.2422    0.4604 S   0  0  0  0  0  0  0  0  0  1  0  0
    0.5895    0.3589    1.0063 C   0  0  0  0  0  0  0  0  0  2  0  0
   -0.5377    1.0097    0.3677 C   0  0  0  0  0  0  0  0  0  3  0  0
   -1.2043    0.6559   -1.0711 S   0  0  0  0  0  0  0  0  0  4  0  0
    0.5187   -1.1546   -0.7367 H   0  0  0  0  0  0  0  0  0  5  0  0
    0.5701    0.4162    2.0931 H   0  0  0  0  0  0  0  0  0  6  0  0
   -0.9034    1.8758    0.9195 H   0  0  0  0  0  0  0  0  0  7  0  0
    1.4021    1.0463    0.7781 H   0  0  0  0  0  0  0  0  0  8  0  0
  1  2  1  0
  1  5  1  0
  2  8  1  0
  2  6  1  0
  2  3  1  0
  3  7  1  0
  3  4  1  0
M  END
>  <rmg_smiles>  (2) 
[S][CH]CS

>  <rmg_adjacency_list>  (2) 
1 S u0 p2 c0 {3,S} {8,S}
2 S u0 p2 c0 {4,S}
3 C u0 p0 c0 {1,S} {4,S} {5,S} {6,S}
4 C u0 p0 c0 {2,S} {3,S} {7,S}
5 H u0 p0 c0 {3,S}
6 H u0 p0 c0 {3,S}
7 H u0 p0 c0 {4,S}
8 H u0 p0 c0 {1,S}


>  <multiplicity>  (2) 
1

>  <reaction>  (2) 
rxn_1465

>  <type>  (2) 
r2h

>  <role_mapnums>  (2) 
{"r2h_a": 2, "r2h_h": 8}

>  <role_mapidx>  (2) 
{"r2h_a": 1, "r2h_h": 7}

>  <ordered_mapped_smiles>  (2) 
[S:1]([C:2]([CH:3]([SH:4])[H:7])([H:6])[H:8])[H:5]

>  <mol_properties>  (2) 
{"1": {"label": "acceptor", "atom_type": "Cs"}, "7": {"label": "a_hydrogen", "atom_type": "H0"}}

>  <level_of_theory>  (2) 
wb97xd/def2tzvp

>  <lot_method>  (2) 
wb97xd

>  <lot_basis>  (2) 
def2tzvp

>  <spin_multiplicity>  (2) 
1.0

>  <optical_isomers>  (2) 
2.0

>  <modes>  (2) 
IdealGasTranslation(mass=(91.9754, 'amu')),         NonlinearRotor(             inertia = ([28.3667, 272.927, 283.105

>  <frequency_value>  (2) 
unknown

>  <frequency_units>  (2) 
unknown

>  <frequency_list>  (2) 
unknown

>  <arkane_path>  (2) 
/home/calvin/Dropbox/PersonalFolders/Calvin/HAb_Converged/rxn_1465/output/Species/rxn_1465_SCC=S/arkane/output.py

>  <path_exists>  (2) 
True

>  <E0_value>  (2) 
-2297161.3466777904

>  <E0_units>  (2) 
kJ/mol

>  <thermo_class>  (2) 
NASA

>  <Cp0_value>  (2) 
33.257888

>  <Cp0_units>  (2) 
J/(mol*K)

>  <CpInf_value>  (2) 
182.918384

>  <CpInf_units>  (2) 
J/(mol*K)

>  <Tmin_value>  (2) 
10.0

>  <Tmin_units>  (2) 
K

>  <Tmax_value>  (2) 
3000.0

>  <Tmax_units>  (2) 
K

>  <polynomials>  (2) 
[{"name": "polynomial1", "class": "NASAPolynomial", "Tmin_value": 10.0, "Tmin_units": "K", "Tmax_value": 567.405620818633, "Tmax_units": "K", "coeffs": [3.8277609508989623, 0.014824427545175404, 3.0299896091266106e-05, -6.9913804277529e-08, 4.1306879923044485e-11, -276284690.67852616, 11.183447964823454]}, {"name": "polynomial2", "class": "NASAPolynomial", "Tmin_value": 567.405620818633, "Tmin_units": "K", "Tmax_value": 3000.0, "Tmax_units": "K", "coeffs": [3.20844294643947, 0.02574245495960447, -1.588423849106844e-05, 4.70095040384155e-09, -5.353188124976782e-13, -276284725.86919546, 12.890924157107381]}]

>  <H298_value>  (2) 
-549030.8628187295

>  <H298_units>  (2) 
kcal/mol

>  <S298_value>  (2) 
75.94771372042368

>  <S298_units>  (2) 
cal/(mol*K)

>  <Cp_T_value_list>  (2) 
[18.77710006779073, 22.23383608120124, 25.152873937779237, 27.585641602041346, 31.445782810832423, 34.244120714123866, 38.230365343467774, 40.13938764196494, 41.17981933012442]

>  <Cp_T_units>  (2) 
cal/(mol*K)

>  <T_list>  (2) 
[300.0, 400.0, 500.0, 600.0, 800.0, 1000.0, 1500.0, 2000.0, 2400.0]

>  <T_units>  (2) 
K

>  <yaml_path>  (2) 
/home/calvin/Dropbox/PersonalFolders/Calvin/HAb_Converged/rxn_1465/output/Species/rxn_1465_SCC=S/rxn_1465_SCC=S.yml

>  <frequencies_cm1>  (2) 
[80.75574736319999, 266.2330208564, 305.26496541528, 376.90135627352, 683.70452640048, 787.8972946608399, 844.3027120793199, 953.5015126379599, 1032.3482380822, 1160.69906069832, 1182.2888625443998, 1236.400706866, 1388.44949582144, 1449.3115867126, 2698.0591331839596, 3041.5869408022795, 3077.6798156442, 3121.4774480151596]

>  <ZPE_kJmol>  (2) 
141.6789408228882

>  <E_elec_kJmol>  (2) 
-2297303.025618613

>  <E0_minus_Eelec_plus_ZPE_kJmol>  (2) 
0.0

>  <rxn>  (2) 
rxn_1465

>  <species_type>  (2) 
p0

>  <species_folder>  (2) 
rxn_1465_SCC=S

>  <frequencies_cm1_list>  (2) 
[80.75574736319999, 266.2330208564, 305.26496541528, 376.90135627352, 683.70452640048, 787.8972946608399, 844.3027120793199, 953.5015126379599, 1032.3482380822, 1160.69906069832, 1182.2888625443998, 1236.400706866, 1388.44949582144, 1449.3115867126, 2698.0591331839596, 3041.5869408022795, 3077.6798156442, 3121.4774480151596]

>  <E0_kJmol>  (2) 
-2.29716e+06

>  <H298_kJmol>  (2) 
-2.29715e+06

$$$$

     RDKit          3D

 22 21  0  0  0  0  0  0  0  0999 V2000
    0.2088   -2.5150    1.1580 S   0  0  0  0  0  0  0  0  0  1  0  0
   -0.3320   -0.9139    1.7038 C   0  0  0  0  0  0  0  0  0  2  0  0
   -1.4592   -0.2630    1.0653 C   0  0  0  0  0  0  0  0  0  3  0  0
   -2.1259   -0.6168   -0.3735 S   0  0  0  0  0  0  0  0  0  4  0  0
   -0.4029   -2.4274   -0.0391 H   0  0  0  0  0  0  0  0  0  5  0  0
   -0.3514   -0.8566    2.7907 H   0  0  0  0  0  0  0  0  0  6  0  0
   -1.8249    0.6030    1.6170 H   0  0  0  0  0  0  0  0  0  7  0  0
    1.7753    0.6581    0.9809 C   0  0  0  0  0  0  0  0  0  8  0  0
    1.4191    0.9019   -0.3933 C   0  0  0  0  0  0  0  0  0  9  0  0
    0.6978    2.0488   -0.7572 C   0  0  0  0  0  3  0  0  0 10  0  0
    0.2707    2.2332   -2.0577 C   0  0  0  0  0  0  0  0  0 11  0  0
    0.5458    1.2749   -3.0242 C   0  0  0  0  0  0  0  0  0 12  0  0
    1.2624    0.1346   -2.6827 C   0  0  0  0  0  0  0  0  0 13  0  0
    1.6946   -0.0526   -1.3845 C   0  0  0  0  0  0  0  0  0 14  0  0
    0.6221   -0.1068    1.4359 H   0  0  0  0  0  0  0  0  0 15  0  0
    2.5349   -0.0893    1.1855 H   0  0  0  0  0  0  0  0  0 16  0  0
    1.7508    1.4975    1.6688 H   0  0  0  0  0  0  0  0  0 17  0  0
    0.4727    2.7935   -0.0025 H   0  0  0  0  0  0  0  0  0 18  0  0
   -0.2872    3.1228   -2.3207 H   0  0  0  0  0  0  0  0  0 19  0  0
    0.2044    1.4168   -4.0415 H   0  0  0  0  0  0  0  0  0 20  0  0
    1.4797   -0.6129   -3.4351 H   0  0  0  0  0  0  0  0  0 21  0  0
    2.2426   -0.9474   -1.1157 H   0  0  0  0  0  0  0  0  0 22  0  0
  1  5  1  0
  1  2  1  0
  2 15  1  0
  2  6  1  0
  2  3  1  0
  3  7  1  0
  3  4  1  0
  8 16  1  0
  8 17  1  0
  8  9  1  0
  9 14  1  0
  9 10  1  0
 10 18  1  0
 10 11  1  0
 11 19  1  0
 11 12  1  0
 12 20  1  0
 12 13  1  0
 13 21  1  0
 13 14  1  0
 14 22  1  0
M  RAD  1  10   2
M  END
>  <rmg_smiles>  (3) 
[CH2][C]1[CH][CH][CH][CH][CH]1.[S][CH]CS

>  <rmg_adjacency_list>  (3) 
multiplicity 2
1  S u0 p2 c0 {3,S} {22,S}
2  S u0 p2 c0 {10,S}
3  C u0 p0 c0 {1,S} {10,S} {12,S} {13,S}
4  C u0 p0 c0 {5,S} {6,S} {11,S}
5  C u1 p0 c0 {4,S} {7,S} {14,S}
6  C u0 p0 c0 {4,S} {9,S} {18,S}
7  C u0 p0 c0 {5,S} {8,S} {15,S}
8  C u0 p0 c0 {7,S} {9,S} {16,S}
9  C u0 p0 c0 {6,S} {8,S} {17,S}
10 C u0 p0 c0 {2,S} {3,S} {19,S}
11 C u0 p0 c0 {4,S} {20,S} {21,S}
12 H u0 p0 c0 {3,S}
13 H u0 p0 c0 {3,S}
14 H u0 p0 c0 {5,S}
15 H u0 p0 c0 {7,S}
16 H u0 p0 c0 {8,S}
17 H u0 p0 c0 {9,S}
18 H u0 p0 c0 {6,S}
19 H u0 p0 c0 {10,S}
20 H u0 p0 c0 {11,S}
21 H u0 p0 c0 {11,S}
22 H u0 p0 c0 {1,S}


>  <multiplicity>  (3) 
2

>  <reaction>  (3) 
rxn_1465

>  <type>  (3) 
ts

>  <role_mapnums>  (3) 
{"*2": 15, "*1": 8, "*3": 2, "*0": 3, "*4": 9}

>  <role_mapidx>  (3) 
{"*2": 14, "*1": 7, "*3": 1, "*0": 2, "*4": 8}

>  <ordered_mapped_smiles>  (3) 
[S:1]([C:2]([CH:3]([SH:4])[H:7])([H:6])[H:15])[H:5].[CH:8]([CH:9]1[C:10]([H:18])[CH:11]([H:19])[CH:12]([H:20])[CH:13]([H:21])[CH:14]1[H:22])([H:16])[H:17]

>  <mol_properties>  (3) 
{"1": {"label": "*3", "atom_type": "Cs"}, "2": {"label": "*0", "atom_type": "Cs"}, "7": {"label": "*1", "atom_type": "Cs"}, "8": {"label": "*4", "atom_type": "Cs"}, "14": {"label": "*2", "atom_type": "H0"}}

>  <level_of_theory>  (3) 
wb97xd/def2tzvp

>  <lot_method>  (3) 
wb97xd

>  <lot_basis>  (3) 
def2tzvp

>  <spin_multiplicity>  (3) 
2.0

>  <optical_isomers>  (3) 
2.0

>  <modes>  (3) 
IdealGasTranslation(mass=(183.03, 'amu')),         NonlinearRotor(             inertia = ([441.375, 858.247, 973.999

>  <frequency_value>  (3) 
-1596.37

>  <frequency_units>  (3) 
cm^-1

>  <frequency_list>  (3) 
unknown

>  <arkane_path>  (3) 
/home/calvin/Dropbox/PersonalFolders/Calvin/HAb_Converged/rxn_1465/output/rxns/TS0/arkane/output.py

>  <path_exists>  (3) 
True

>  <E0_value>  (3) 
-3008110.0

>  <E0_units>  (3) 
kJ/mol

>  <thermo_class>  (3) 
unknown

>  <Cp0_value>  (3) 
unknown

>  <Cp0_units>  (3) 
unknown

>  <CpInf_value>  (3) 
unknown

>  <CpInf_units>  (3) 
unknown

>  <Tmin_value>  (3) 
unknown

>  <Tmin_units>  (3) 
unknown

>  <Tmax_value>  (3) 
unknown

>  <Tmax_units>  (3) 
unknown

>  <polynomials>  (3) 
unknown

>  <H298_value>  (3) 
unknown

>  <H298_units>  (3) 
unknown

>  <S298_value>  (3) 
unknown

>  <S298_units>  (3) 
unknown

>  <Cp_T_value_list>  (3) 
unknown

>  <Cp_T_units>  (3) 
unknown

>  <T_list>  (3) 
unknown

>  <T_units>  (3) 
unknown

>  <yaml_path>  (3) 
unknown

>  <frequencies_cm1>  (3) 
unknown

>  <ZPE_kJmol>  (3) 
unknown

>  <E_elec_kJmol>  (3) 
unknown

>  <E0_minus_Eelec_plus_ZPE_kJmol>  (3) 
unknown

>  <rxn>  (3) 
unknown

>  <species_type>  (3) 
unknown

>  <species_folder>  (3) 
unknown

>  <frequencies_cm1_list>  (3) 
[]

>  <ts_imag_freq_cm1>  (3) 
-1615.7568

>  <ts_freq_out_path>  (3) 
/home/calvin/Dropbox/PersonalFolders/Calvin/HAb_Converged/rxn_1465/output/rxns/TS0/geometry/freq.out

>  <E0_kJmol>  (3) 
-3.00811e+06

>  <H298_kJmol>  (3) 
unknown

$$$$

     RDKit          3D

 14 14  0  0  0  0  0  0  0  0999 V2000
    2.3111    0.1295    0.0255 C   0  0  0  0  0  0  0  0  0  1  0  0
    0.9132    0.0511    0.0101 C   0  0  0  0  0  0  0  0  0  2  0  0
    0.2446   -1.1981    0.0389 C   0  0  0  0  0  3  0  0  0  3  0  0
   -1.1306   -1.2689    0.0235 C   0  0  0  0  0  0  0  0  0  4  0  0
   -1.8967   -0.1062   -0.0209 C   0  0  0  0  0  0  0  0  0  5  0  0
   -1.2644    1.1347   -0.0499 C   0  0  0  0  0  0  0  0  0  6  0  0
    0.1101    1.2180   -0.0350 C   0  0  0  0  0  0  0  0  0  7  0  0
    2.9188   -0.7647    0.0599 H   0  0  0  0  0  0  0  0  0  8  0  0
    2.8158    1.0859    0.0034 H   0  0  0  0  0  0  0  0  0  9  0  0
    0.8353   -2.1058    0.0735 H   0  0  0  0  0  0  0  0  0 10  0  0
   -1.6191   -2.2351    0.0461 H   0  0  0  0  0  0  0  0  0 11  0  0
   -2.9772   -0.1668   -0.0328 H   0  0  0  0  0  0  0  0  0 12  0  0
   -1.8572    2.0404   -0.0845 H   0  0  0  0  0  0  0  0  0 13  0  0
    0.5964    2.1860   -0.0577 H   0  0  0  0  0  0  0  0  0 14  0  0
  1  8  1  0
  1  9  1  0
  1  2  1  0
  2  7  1  0
  2  3  1  0
  3  4  1  0
  3 10  1  0
  4  5  1  0
  4 11  1  0
  5 12  1  0
  5  6  1  0
  6 13  1  0
  6  7  1  0
  7 14  1  0
M  RAD  1   3   2
M  END
>  <rmg_smiles>  (4) 
[CH2]C1[CH][CH][CH][CH][CH]1

>  <rmg_adjacency_list>  (4) 
multiplicity 2
1  C u0 p0 c0 {2,S} {3,S} {7,S}
2  C u1 p0 c0 {1,S} {4,S} {8,S}
3  C u0 p0 c0 {1,S} {6,S} {12,S}
4  C u0 p0 c0 {2,S} {5,S} {9,S}
5  C u0 p0 c0 {4,S} {6,S} {10,S}
6  C u0 p0 c0 {3,S} {5,S} {11,S}
7  C u0 p0 c0 {1,S} {13,S} {14,S}
8  H u0 p0 c0 {2,S}
9  H u0 p0 c0 {4,S}
10 H u0 p0 c0 {5,S}
11 H u0 p0 c0 {6,S}
12 H u0 p0 c0 {3,S}
13 H u0 p0 c0 {7,S}
14 H u0 p0 c0 {7,S}


>  <multiplicity>  (4) 
2

>  <reaction>  (4) 
rxn_1465

>  <type>  (4) 
r1

>  <role_mapnums>  (4) 
{}

>  <role_mapidx>  (4) 
{}

>  <ordered_mapped_smiles>  (4) 
[CH:1]([CH:2]1[C:3]([H:10])[CH:4]([H:11])[CH:5]([H:12])[CH:6]([H:13])[CH:7]1[H:14])([H:8])[H:9]

>  <level_of_theory>  (4) 
wb97xd/def2tzvp

>  <lot_method>  (4) 
wb97xd

>  <lot_basis>  (4) 
def2tzvp

>  <spin_multiplicity>  (4) 
2.0

>  <optical_isomers>  (4) 
1.0

>  <modes>  (4) 
IdealGasTranslation(mass=(91.0548, 'amu')),         NonlinearRotor(             inertia = ([90.2688, 184.999, 275.268

>  <frequency_value>  (4) 
unknown

>  <frequency_units>  (4) 
unknown

>  <frequency_list>  (4) 
unknown

>  <arkane_path>  (4) 
/home/calvin/Dropbox/PersonalFolders/Calvin/HAb_Converged/rxn_1465/output/Species/rxn_1465_[CH2]c1ccccc1/arkane/output.py

>  <path_exists>  (4) 
True

>  <E0_value>  (4) 
-710982.0623900568

>  <E0_units>  (4) 
kJ/mol

>  <thermo_class>  (4) 
NASA

>  <Cp0_value>  (4) 
33.257888

>  <Cp0_units>  (4) 
J/(mol*K)

>  <CpInf_value>  (4) 
332.57888

>  <CpInf_units>  (4) 
J/(mol*K)

>  <Tmin_value>  (4) 
10.0

>  <Tmin_units>  (4) 
K

>  <Tmax_value>  (4) 
3000.0

>  <Tmax_units>  (4) 
K

>  <polynomials>  (4) 
[{"name": "polynomial1", "class": "NASAPolynomial", "Tmin_value": 10.0, "Tmin_units": "K", "Tmax_value": 553.2111543820812, "Tmax_units": "K", "coeffs": [4.142543100339783, -0.014218751426311257, 0.00025768288845109076, -4.6329717299686994e-07, 2.6710359880098635e-10, -85511387.18345657, 10.487952528933349]}, {"name": "polynomial2", "class": "NASAPolynomial", "Tmin_value": 553.2111543820812, "Tmin_units": "K", "Tmax_value": 3000.0, "Tmax_units": "K", "coeffs": [-0.7942858141271507, 0.05799977662333905, -3.716272398168618e-05, 1.1355668259156845e-08, -1.3253477782048034e-12, -85511399.83716469, 26.33142406546513]}]

>  <H298_value>  (4) 
-169924.63454747986

>  <H298_units>  (4) 
kcal/mol

>  <S298_value>  (4) 
74.98251677136349

>  <S298_units>  (4) 
cal/(mol*K)

>  <Cp_T_value_list>  (4) 
[25.283015903963822, 33.526434594449704, 40.21254996448577, 45.52304336844698, 53.838654110521205, 59.76143460322508, 67.97251244989147, 71.92525639213041, 74.23565100621211]

>  <Cp_T_units>  (4) 
cal/(mol*K)

>  <T_list>  (4) 
[300.0, 400.0, 500.0, 600.0, 800.0, 1000.0, 1500.0, 2000.0, 2400.0]

>  <T_units>  (4) 
K

>  <yaml_path>  (4) 
/home/calvin/Dropbox/PersonalFolders/Calvin/HAb_Converged/rxn_1465/output/Species/rxn_1465_[CH2]c1ccccc1/rxn_1465_CH2c1ccccc1.yml

>  <frequencies_cm1>  (4) 
[200.24815891652, 361.60171298056, 390.17523889708, 478.87608827552, 500.34228438583995, 531.78621016612, 625.85017507948, 685.3594698625999, 711.2686054749599, 777.5487477835999, 833.0683240958, 836.50868374112, 906.74420959408, 969.6801300518798, 974.03379874476, 983.70251407532, 992.09397013636, 1038.3980521491198, 1114.7108600102797, 1165.8355657176799, 1178.3403459854, 1276.27729061924, 1315.886061945, 1345.4965026448397, 1472.9546171693598, 1482.97354875124, 1496.57704667016, 1589.63156474148, 1604.18957361988, 3131.52384753832, 3150.75140643432, 3153.26472306144, 3164.65705170732, 3171.3798303356, 3183.3901876602795, 3230.66251460316]

>  <ZPE_kJmol>  (4) 
299.2207520027369

>  <E_elec_kJmol>  (4) 
-711281.2831420596

>  <E0_minus_Eelec_plus_ZPE_kJmol>  (4) 
0.0

>  <rxn>  (4) 
rxn_1465

>  <species_type>  (4) 
p1

>  <species_folder>  (4) 
rxn_1465_[CH2]c1ccccc1

>  <frequencies_cm1_list>  (4) 
[200.24815891652, 361.60171298056, 390.17523889708, 478.87608827552, 500.34228438583995, 531.78621016612, 625.85017507948, 685.3594698625999, 711.2686054749599, 777.5487477835999, 833.0683240958, 836.50868374112, 906.74420959408, 969.6801300518798, 974.03379874476, 983.70251407532, 992.09397013636, 1038.3980521491198, 1114.7108600102797, 1165.8355657176799, 1178.3403459854, 1276.27729061924, 1315.886061945, 1345.4965026448397, 1472.9546171693598, 1482.97354875124, 1496.57704667016, 1589.63156474148, 1604.18957361988, 3131.52384753832, 3150.75140643432, 3153.26472306144, 3164.65705170732, 3171.3798303356, 3183.3901876602795, 3230.66251460316]

>  <E0_kJmol>  (4) 
-710982

>  <H298_kJmol>  (4) 
-710965

$$$$

     RDKit          3D

  7  6  0  0  0  0  0  0  0  0999 V2000
    1.8092   -0.3013   -0.2242 S   0  0  0  0  0  0  0  0  0  1  0  0
    0.1552   -0.6967   -0.1137 C   0  0  0  0  0  0  0  0  0  2  0  0
   -0.8921    0.1788    0.1148 C   0  0  0  0  0  0  0  0  0  3  0  0
   -0.7548    1.8245    0.3328 S   0  0  0  0  0  1  0  0  0  4  0  0
    1.6168    1.0210   -0.0187 H   0  0  0  0  0  0  0  0  0  5  0  0
   -0.0550   -1.7522   -0.2412 H   0  0  0  0  0  0  0  0  0  6  0  0
   -1.8791   -0.2740    0.1502 H   0  0  0  0  0  0  0  0  0  7  0  0
  1  2  1  0
  1  5  1  0
  2  6  1  0
  2  3  1  0
  3  7  1  0
  3  4  1  0
M  RAD  1   4   2
M  END
>  <rmg_smiles>  (5) 
[S][CH][CH]S

>  <rmg_adjacency_list>  (5) 
multiplicity 2
1 S u0 p2 c0 {3,S} {7,S}
2 S u1 p2 c0 {4,S}
3 C u0 p0 c0 {1,S} {4,S} {5,S}
4 C u0 p0 c0 {2,S} {3,S} {6,S}
5 H u0 p0 c0 {3,S}
6 H u0 p0 c0 {4,S}
7 H u0 p0 c0 {1,S}


>  <multiplicity>  (5) 
2

>  <reaction>  (5) 
rxn_1465

>  <type>  (5) 
r2

>  <role_mapnums>  (5) 
{}

>  <role_mapidx>  (5) 
{}

>  <ordered_mapped_smiles>  (5) 
[S:1]([CH:2]([CH:3]([S:4])[H:7])[H:6])[H:5]

>  <level_of_theory>  (5) 
wb97xd/def2tzvp

>  <lot_method>  (5) 
wb97xd

>  <lot_basis>  (5) 
def2tzvp

>  <spin_multiplicity>  (5) 
2.0

>  <optical_isomers>  (5) 
1.0

>  <modes>  (5) 
IdealGasTranslation(mass=(90.9676, 'amu')),         NonlinearRotor(             inertia = ([41.4097, 197.136, 238.545

>  <frequency_value>  (5) 
unknown

>  <frequency_units>  (5) 
unknown

>  <frequency_list>  (5) 
unknown

>  <arkane_path>  (5) 
/home/calvin/Dropbox/PersonalFolders/Calvin/HAb_Converged/rxn_1465/output/Species/rxn_1465_S[CH]C=S/arkane/output.py

>  <path_exists>  (5) 
True

>  <E0_value>  (5) 
-2295558.499177116

>  <E0_units>  (5) 
kJ/mol

>  <thermo_class>  (5) 
NASA

>  <Cp0_value>  (5) 
33.257888

>  <Cp0_units>  (5) 
J/(mol*K)

>  <CpInf_value>  (5) 
157.97496800000002

>  <CpInf_units>  (5) 
J/(mol*K)

>  <Tmin_value>  (5) 
10.0

>  <Tmin_units>  (5) 
K

>  <Tmax_value>  (5) 
3000.0

>  <Tmax_units>  (5) 
K

>  <polynomials>  (5) 
[{"name": "polynomial1", "class": "NASAPolynomial", "Tmin_value": 10.0, "Tmin_units": "K", "Tmax_value": 554.6960794607472, "Tmax_units": "K", "coeffs": [3.930657649995525, 0.004133578951546582, 7.817434034298295e-05, -1.5846333617063625e-07, 9.591774628892396e-11, -276091912.08532095, 10.601035821929795]}, {"name": "polynomial2", "class": "NASAPolynomial", "Tmin_value": 554.6960794607472, "Tmin_units": "K", "Tmax_value": 3000.0, "Tmax_units": "K", "coeffs": [3.4408664918425997, 0.023258497655923274, -1.5709170497003314e-05, 5.049305101645169e-09, -6.173274400398844e-13, -276092097.63637805, 10.513005803020283]}]

>  <H298_value>  (5) 
-548648.1110275816

>  <H298_units>  (5) 
kcal/mol

>  <S298_value>  (5) 
72.51024917341623

>  <S298_units>  (5) 
cal/(mol*K)

>  <Cp_T_value_list>  (5) 
[17.298325835017135, 20.67852204565436, 23.30590683806541, 25.3394820980513, 28.469082781477784, 30.64703909079486, 33.58212838331047, 35.05110655841226, 35.961660605154734]

>  <Cp_T_units>  (5) 
cal/(mol*K)

>  <T_list>  (5) 
[300.0, 400.0, 500.0, 600.0, 800.0, 1000.0, 1500.0, 2000.0, 2400.0]

>  <T_units>  (5) 
K

>  <yaml_path>  (5) 
/home/calvin/Dropbox/PersonalFolders/Calvin/HAb_Converged/rxn_1465/output/Species/rxn_1465_S[CH]C=S/rxn_1465_SCHC=S.yml

>  <frequencies_cm1>  (5) 
[200.51597134399998, 323.99123438291997, 464.0365329989999, 549.3038897174399, 726.3828401642799, 743.81811589176, 881.4256347192398, 918.3837497114799, 977.1651440506799, 1183.8339342414001, 1348.94372927548, 1411.0968134068, 2564.15291944396, 3116.1761353481197, 3166.7652162005597]

>  <ZPE_kJmol>  (5) 
111.10913739733977

>  <E_elec_kJmol>  (5) 
-2295669.608314513

>  <E0_minus_Eelec_plus_ZPE_kJmol>  (5) 
0.0

>  <rxn>  (5) 
rxn_1465

>  <species_type>  (5) 
r0

>  <species_folder>  (5) 
rxn_1465_S[CH]C=S

>  <frequencies_cm1_list>  (5) 
[200.51597134399998, 323.99123438291997, 464.0365329989999, 549.3038897174399, 726.3828401642799, 743.81811589176, 881.4256347192398, 918.3837497114799, 977.1651440506799, 1183.8339342414001, 1348.94372927548, 1411.0968134068, 2564.15291944396, 3116.1761353481197, 3166.7652162005597]

>  <E0_kJmol>  (5) 
-2.29556e+06

>  <H298_kJmol>  (5) 
-2.29554e+06

$$$$
