
     RDKit          3D

  8  7  0  0  0  0  0  0  0  0999 V2000
   -0.1307    1.2096   -1.4495 C   0  0  0  0  0  2  0  0  0  1  0  0
   -0.1083    0.2145   -0.7057 C   0  0  0  0  0  2  0  0  0  2  0  0
    0.1035   -0.1544    0.5926 C   0  0  0  0  0  0  0  0  0  3  0  0
    0.1055   -1.2084    1.3851 C   0  0  0  0  0  0  0  0  0  4  0  0
   -0.2666    1.6288   -2.4238 H   0  0  0  0  0  0  0  0  0  5  0  0
    0.3706    0.8064    1.0327 H   0  0  0  0  0  0  0  0  0  6  0  0
    0.3286   -1.1051    2.4382 H   0  0  0  0  0  0  0  0  0  7  0  0
   -0.1140   -2.1973    1.0034 H   0  0  0  0  0  0  0  0  0  8  0  0
  1  5  1  0
  1  2  1  0
  2  3  1  0
  3  4  1  0
  3  6  1  0
  4  8  1  0
  4  7  1  0
M  RAD  2   1   3   2   3
M  END
>  <rmg_smiles>  (1) 
[CH][C][CH][CH2]

>  <rmg_adjacency_list>  (1) 
1 C u0 p0 c0 {2,S} {3,S} {5,S}
2 C u0 p0 c0 {1,S} {6,S} {7,S}
3 C u0 p1 c0 {1,S} {4,S}
4 C u0 p1 c0 {3,S} {8,S}
5 H u0 p0 c0 {1,S}
6 H u0 p0 c0 {2,S}
7 H u0 p0 c0 {2,S}
8 H u0 p0 c0 {4,S}


>  <multiplicity>  (1) 
1

>  <reaction>  (1) 
rxn_1796

>  <type>  (1) 
r1h

>  <role_mapnums>  (1) 
{"r1h_a": 3, "r1h_h": 6}

>  <role_mapidx>  (1) 
{"r1h_a": 2, "r1h_h": 5}

>  <ordered_mapped_smiles>  (1) 
[C:1]([C:2][CH:3]([CH:4]([H:7])[H:8])[H:6])[H:5]

>  <mol_properties>  (1) 
{"2": {"label": "donator", "atom_type": "Cs"}, "5": {"label": "d_hydrogen", "atom_type": "H0"}}

>  <level_of_theory>  (1) 
wb97xd/def2tzvp

>  <lot_method>  (1) 
wb97xd

>  <lot_basis>  (1) 
def2tzvp

>  <spin_multiplicity>  (1) 
1.0

>  <optical_isomers>  (1) 
1.0

>  <modes>  (1) 
IdealGasTranslation(mass=(52.0313, 'amu')),         NonlinearRotor(             inertia = ([9.86559, 105.845, 115.711

>  <frequency_value>  (1) 
unknown

>  <frequency_units>  (1) 
unknown

>  <frequency_list>  (1) 
unknown

>  <arkane_path>  (1) 
/home/calvin/Dropbox/PersonalFolders/Calvin/HAb_Converged/rxn_1796/output/Species/rxn_1796_CtCC=C/arkane/output.py

>  <path_exists>  (1) 
True

>  <E0_value>  (1) 
-406091.886125891

>  <E0_units>  (1) 
kJ/mol

>  <thermo_class>  (1) 
NASA

>  <Cp0_value>  (1) 
33.257888

>  <Cp0_units>  (1) 
J/(mol*K)

>  <CpInf_value>  (1) 
182.918384

>  <CpInf_units>  (1) 
J/(mol*K)

>  <Tmin_value>  (1) 
10.0

>  <Tmin_units>  (1) 
K

>  <Tmax_value>  (1) 
3000.0

>  <Tmax_units>  (1) 
K

>  <polynomials>  (1) 
[{"name": "polynomial1", "class": "NASAPolynomial", "Tmin_value": 10.0, "Tmin_units": "K", "Tmax_value": 539.6924259091454, "Tmax_units": "K", "coeffs": [3.952165135673625, 0.002856988610718535, 7.748969027068091e-05, -1.4636771659515447e-07, 8.592251635550374e-11, -48841570.194759525, 7.59056634578395]}, {"name": "polynomial2", "class": "NASAPolynomial", "Tmin_value": 539.6924259091454, "Tmin_units": "K", "Tmax_value": 3000.0, "Tmax_units": "K", "coeffs": [2.1702296891625794, 0.026363759472425752, -1.64707651230591e-05, 5.0606479604362095e-09, -6.036458079288838e-13, -48841527.85434033, 13.698684547881204]}]

>  <H298_value>  (1) 
-97054.8281313212

>  <H298_units>  (1) 
kcal/mol

>  <S298_value>  (1) 
66.12779656879917

>  <S298_units>  (1) 
cal/(mol*K)

>  <Cp_T_value_list>  (1) 
[16.94566075459627, 20.518689246869094, 23.50323718540477, 25.98049414422314, 29.93477402200161, 32.8291008840918, 37.12176727992767, 39.42923508788264, 40.74274810859482]

>  <Cp_T_units>  (1) 
cal/(mol*K)

>  <T_list>  (1) 
[300.0, 400.0, 500.0, 600.0, 800.0, 1000.0, 1500.0, 2000.0, 2400.0]

>  <T_units>  (1) 
K

>  <yaml_path>  (1) 
/home/calvin/Dropbox/PersonalFolders/Calvin/HAb_Converged/rxn_1796/output/Species/rxn_1796_CtCC=C/rxn_1796_CtCC=C.yml

>  <frequencies_cm1>  (1) 
[225.237118496, 321.82126702179994, 559.30222034336, 675.23753350092, 692.86508481736, 707.3338228865999, 885.99904694236, 971.2114677782399, 1012.2485720505599, 1105.4198288723198, 1315.886061945, 1434.5613022452399, 1683.44831818332, 2214.2525494486795, 3131.88779776028, 3144.7221933233595, 3226.7002640735195, 3436.58967037932]

>  <ZPE_kJmol>  (1) 
159.96902072108773

>  <E_elec_kJmol>  (1) 
-406251.8551466121

>  <E0_minus_Eelec_plus_ZPE_kJmol>  (1) 
0.0

>  <rxn>  (1) 
rxn_1796

>  <species_type>  (1) 
r0

>  <species_folder>  (1) 
rxn_1796_CtCC=C

>  <frequencies_cm1_list>  (1) 
[225.237118496, 321.82126702179994, 559.30222034336, 675.23753350092, 692.86508481736, 707.3338228865999, 885.99904694236, 971.2114677782399, 1012.2485720505599, 1105.4198288723198, 1315.886061945, 1434.5613022452399, 1683.44831818332, 2214.2525494486795, 3131.88779776028, 3144.7221933233595, 3226.7002640735195, 3436.58967037932]

>  <E0_kJmol>  (1) 
-406092

>  <H298_kJmol>  (1) 
-406077

$$$$

     RDKit          3D

  6  5  0  0  0  0  0  0  0  0999 V2000
    0.1811   -1.4692   -0.1577 H   0  0  0  0  0  0  0  0  0  1  0  0
    0.1066    0.2413   -1.4876 S   0  0  0  0  0  0  0  0  0  2  0  0
    0.2592   -0.3905   -0.0217 C   0  0  0  0  0  0  0  0  0  3  0  0
   -0.1267   -0.1452    1.2698 C   0  0  0  0  0  2  0  0  0  4  0  0
   -0.3784    0.0295    2.4414 C   0  0  0  0  0  2  0  0  0  5  0  0
   -0.6098    0.2017    3.4647 H   0  0  0  0  0  0  0  0  0  6  0  0
  1  3  1  0
  2  3  1  0
  3  4  1  0
  4  5  1  0
  5  6  1  0
M  RAD  2   4   3   5   3
M  END
>  <rmg_smiles>  (2) 
[CH][C][CH][S]

>  <rmg_adjacency_list>  (2) 
1 S u0 p2 c0 {2,S}
2 C u0 p0 c0 {1,S} {3,S} {5,S}
3 C u0 p1 c0 {2,S} {4,S}
4 C u0 p1 c0 {3,S} {6,S}
5 H u0 p0 c0 {2,S}
6 H u0 p0 c0 {4,S}


>  <multiplicity>  (2) 
1

>  <reaction>  (2) 
rxn_1796

>  <type>  (2) 
r2h

>  <role_mapnums>  (2) 
{"r2h_a": 3, "r2h_h": 1}

>  <role_mapidx>  (2) 
{"r2h_a": 2, "r2h_h": 0}

>  <ordered_mapped_smiles>  (2) 
[H:1][CH:3]([SH:2])[C:4][C:5][H:6]

>  <mol_properties>  (2) 
{"0": {"label": "a_hydrogen", "atom_type": "H0"}, "2": {"label": "acceptor", "atom_type": "Cs"}}

>  <level_of_theory>  (2) 
wb97xd/def2tzvp

>  <lot_method>  (2) 
wb97xd

>  <lot_basis>  (2) 
def2tzvp

>  <spin_multiplicity>  (2) 
1.0

>  <optical_isomers>  (2) 
1.0

>  <modes>  (2) 
IdealGasTranslation(mass=(69.9877, 'amu')),         NonlinearRotor(             inertia = ([11.6212, 161.614, 173.235

>  <frequency_value>  (2) 
unknown

>  <frequency_units>  (2) 
unknown

>  <frequency_list>  (2) 
unknown

>  <arkane_path>  (2) 
/home/calvin/Dropbox/PersonalFolders/Calvin/HAb_Converged/rxn_1796/output/Species/rxn_1796_S=CCtC/arkane/output.py

>  <path_exists>  (2) 
True

>  <E0_value>  (2) 
-1348403.2166827258

>  <E0_units>  (2) 
kJ/mol

>  <thermo_class>  (2) 
NASA

>  <Cp0_value>  (2) 
33.257888

>  <Cp0_units>  (2) 
J/(mol*K)

>  <CpInf_value>  (2) 
133.031552

>  <CpInf_units>  (2) 
J/(mol*K)

>  <Tmin_value>  (2) 
10.0

>  <Tmin_units>  (2) 
K

>  <Tmax_value>  (2) 
3000.0

>  <Tmax_units>  (2) 
K

>  <polynomials>  (2) 
[{"name": "polynomial1", "class": "NASAPolynomial", "Tmin_value": 10.0, "Tmin_units": "K", "Tmax_value": 526.1931186551269, "Tmax_units": "K", "coeffs": [3.9344179530593837, 0.004065911246821127, 6.553703840412658e-05, -1.443495918647441e-07, 9.394913877894461e-11, -162175444.89571163, 8.726396833892856]}, {"name": "polynomial2", "class": "NASAPolynomial", "Tmin_value": 526.1931186551269, "Tmin_units": "K", "Tmax_value": 3000.0, "Tmax_units": "K", "coeffs": [4.093919333345027, 0.01690723381309554, -1.1131975130527351e-05, 3.5450645767000207e-09, -4.3283902101660573e-13, -162175656.24187788, 6.210553362827294]}]

>  <H298_value>  (2) 
-322272.7386756088

>  <H298_units>  (2) 
kcal/mol

>  <S298_value>  (2) 
67.91208442892471

>  <S298_units>  (2) 
cal/(mol*K)

>  <Cp_T_value_list>  (2) 
[15.73087337153612, 18.308993297637482, 20.229276045615624, 21.740807345987587, 24.110825163743634, 25.79672956901056, 28.180916020636673, 29.441614337399088, 30.200603661820587]

>  <Cp_T_units>  (2) 
cal/(mol*K)

>  <T_list>  (2) 
[300.0, 400.0, 500.0, 600.0, 800.0, 1000.0, 1500.0, 2000.0, 2400.0]

>  <T_units>  (2) 
K

>  <yaml_path>  (2) 
/home/calvin/Dropbox/PersonalFolders/Calvin/HAb_Converged/rxn_1796/output/Species/rxn_1796_S=CCtC/rxn_1796_S=CCtC.yml

>  <frequencies_cm1>  (2) 
[195.80521941447998, 323.02298945279995, 518.06597349676, 673.6855948186, 732.2953145248, 869.92343430824, 913.78286954708, 1131.63797882408, 1352.94031473172, 2194.1048145197997, 3080.7287571262796, 3429.86689175104]

>  <ZPE_kJmol>  (2) 
92.2073468060466

>  <E_elec_kJmol>  (2) 
-1348495.424029532

>  <E0_minus_Eelec_plus_ZPE_kJmol>  (2) 
0.0

>  <rxn>  (2) 
rxn_1796

>  <species_type>  (2) 
p0

>  <species_folder>  (2) 
rxn_1796_S=CCtC

>  <frequencies_cm1_list>  (2) 
[195.80521941447998, 323.02298945279995, 518.06597349676, 673.6855948186, 732.2953145248, 869.92343430824, 913.78286954708, 1131.63797882408, 1352.94031473172, 2194.1048145197997, 3080.7287571262796, 3429.86689175104]

>  <E0_kJmol>  (2) 
-1.3484e+06

>  <H298_kJmol>  (2) 
-1.34839e+06

$$$$

     RDKit          3D

 13 12  0  0  0  0  0  0  0  0999 V2000
   -0.1957   -0.5970   -2.3934 C   0  0  0  0  0  0  0  0  0  1  0  0
   -0.1732   -1.5922   -1.6495 C   0  0  0  0  0  3  0  0  0  2  0  0
    0.0385   -1.9610   -0.3513 C   0  0  0  0  0  0  0  0  0  3  0  0
    0.0405   -3.0150    0.4412 C   0  0  0  0  0  0  0  0  0  4  0  0
   -0.3316   -0.1779   -3.3677 H   0  0  0  0  0  0  0  0  0  5  0  0
    0.3436   -0.8639    0.1513 H   0  0  0  0  0  0  0  0  0  6  0  0
    0.2637   -2.9118    1.4943 H   0  0  0  0  0  0  0  0  0  7  0  0
   -0.1789   -4.0040    0.0595 H   0  0  0  0  0  0  0  0  0  8  0  0
    0.2951    1.2063   -1.1333 S   0  0  0  0  0  0  0  0  0  9  0  0
    0.4477    0.5745    0.3326 C   0  0  0  0  0  0  0  0  0 10  0  0
    0.0618    0.8197    1.6241 C   0  0  0  0  0  0  0  0  0 11  0  0
   -0.1900    0.9944    2.7957 C   0  0  0  0  0  0  0  0  0 12  0  0
   -0.4214    1.1666    3.8190 H   0  0  0  0  0  0  0  0  0 13  0  0
  1  5  1  0
  1  9  1  0
  1  2  1  0
  2  3  1  0
  3  4  1  0
  3  6  1  0
  4  8  1  0
  4  7  1  0
  9 10  1  0
 10 11  1  0
 11 12  1  0
 12 13  1  0
M  RAD  1   2   2
M  END
>  <rmg_smiles>  (3) 
[CH][C][C]S[CH][C][CH][CH2]

>  <rmg_adjacency_list>  (3) 
multiplicity 2
1  S u0 p2 c0 {3,S} {6,S}
2  C u0 p0 c0 {4,S} {5,S} {9,S}
3  C u0 p0 c0 {1,S} {5,S} {10,S}
4  C u0 p0 c0 {2,S} {11,S} {12,S}
5  C u1 p1 c0 {2,S} {3,S}
6  C u0 p1 c0 {1,S} {7,S}
7  C u0 p1 c0 {6,S} {8,S}
8  C u0 p1 c0 {7,S} {13,S}
9  H u0 p0 c0 {2,S}
10 H u0 p0 c0 {3,S}
11 H u0 p0 c0 {4,S}
12 H u0 p0 c0 {4,S}
13 H u0 p0 c0 {8,S}


>  <multiplicity>  (3) 
2

>  <reaction>  (3) 
rxn_1796

>  <type>  (3) 
ts

>  <role_mapnums>  (3) 
{"*2": 6, "*1": 3, "*3": 10, "*0": 2, "*4": 9}

>  <role_mapidx>  (3) 
{"*2": 5, "*1": 2, "*3": 9, "*0": 1, "*4": 8}

>  <ordered_mapped_smiles>  (3) 
[CH:1]([CH:2][CH:3]([CH:4]([H:7])[H:8])[H:6])([H:5])[S:9][CH2:10][CH2:11][CH2:12][H:13]

>  <mol_properties>  (3) 
{"1": {"label": "*0", "atom_type": "C2s"}, "2": {"label": "*1", "atom_type": "Cs"}, "5": {"label": "*2", "atom_type": "H0"}, "8": {"label": "*4", "atom_type": "S2s"}, "9": {"label": "*3", "atom_type": "C2s"}}

>  <level_of_theory>  (3) 
wb97xd/def2tzvp

>  <lot_method>  (3) 
wb97xd

>  <lot_basis>  (3) 
def2tzvp

>  <spin_multiplicity>  (3) 
2.0

>  <optical_isomers>  (3) 
2.0

>  <modes>  (3) 
IdealGasTranslation(mass=(121.011, 'amu')),         NonlinearRotor(             inertia = ([250.573, 339.226, 579.37

>  <frequency_value>  (3) 
-754.648

>  <frequency_units>  (3) 
cm^-1

>  <frequency_list>  (3) 
unknown

>  <arkane_path>  (3) 
/home/calvin/Dropbox/PersonalFolders/Calvin/HAb_Converged/rxn_1796/output/rxns/TS0/arkane/output.py

>  <path_exists>  (3) 
True

>  <E0_value>  (3) 
-1752720.0

>  <E0_units>  (3) 
kJ/mol

>  <thermo_class>  (3) 
unknown

>  <Cp0_value>  (3) 
unknown

>  <Cp0_units>  (3) 
unknown

>  <CpInf_value>  (3) 
unknown

>  <CpInf_units>  (3) 
unknown

>  <Tmin_value>  (3) 
unknown

>  <Tmin_units>  (3) 
unknown

>  <Tmax_value>  (3) 
unknown

>  <Tmax_units>  (3) 
unknown

>  <polynomials>  (3) 
unknown

>  <H298_value>  (3) 
unknown

>  <H298_units>  (3) 
unknown

>  <S298_value>  (3) 
unknown

>  <S298_units>  (3) 
unknown

>  <Cp_T_value_list>  (3) 
unknown

>  <Cp_T_units>  (3) 
unknown

>  <T_list>  (3) 
unknown

>  <T_units>  (3) 
unknown

>  <yaml_path>  (3) 
unknown

>  <frequencies_cm1>  (3) 
unknown

>  <ZPE_kJmol>  (3) 
unknown

>  <E_elec_kJmol>  (3) 
unknown

>  <E0_minus_Eelec_plus_ZPE_kJmol>  (3) 
unknown

>  <rxn>  (3) 
unknown

>  <species_type>  (3) 
unknown

>  <species_folder>  (3) 
unknown

>  <frequencies_cm1_list>  (3) 
[]

>  <ts_imag_freq_cm1>  (3) 
-763.8133

>  <ts_freq_out_path>  (3) 
/home/calvin/Dropbox/PersonalFolders/Calvin/HAb_Converged/rxn_1796/output/rxns/TS0/geometry/freq.out

>  <E0_kJmol>  (3) 
-1.75272e+06

>  <H298_kJmol>  (3) 
unknown

$$$$

     RDKit          3D

  7  6  0  0  0  0  0  0  0  0999 V2000
    1.3002    0.7433    2.1279 C   0  0  0  0  0  0  0  0  0  1  0  0
    0.5758    0.3292    1.2319 C   0  0  0  0  0  0  0  0  0  2  0  0
   -0.2057   -0.1176    0.2653 C   0  0  0  0  0  3  0  0  0  3  0  0
   -0.9747   -0.5572   -0.6858 C   0  0  0  0  0  0  0  0  0  4  0  0
    1.9293    1.1030    2.9059 H   0  0  0  0  0  0  0  0  0  5  0  0
   -1.9977   -0.8727   -0.4932 H   0  0  0  0  0  0  0  0  0  6  0  0
   -0.6274   -0.6280   -1.7142 H   0  0  0  0  0  0  0  0  0  7  0  0
  1  5  1  0
  1  2  1  0
  2  3  1  0
  3  4  1  0
  4  7  1  0
  4  6  1  0
M  RAD  1   3   2
M  END
>  <rmg_smiles>  (4) 
[CH]C[C][CH2]

>  <rmg_adjacency_list>  (4) 
multiplicity 2
1 C u0 p0 c0 {2,S} {5,S} {6,S}
2 C u1 p1 c0 {1,S} {3,S}
3 C u0 p1 c0 {2,S} {4,S}
4 C u0 p1 c0 {3,S} {7,S}
5 H u0 p0 c0 {1,S}
6 H u0 p0 c0 {1,S}
7 H u0 p0 c0 {4,S}


>  <multiplicity>  (4) 
2

>  <reaction>  (4) 
rxn_1796

>  <type>  (4) 
r1

>  <role_mapnums>  (4) 
{}

>  <role_mapidx>  (4) 
{}

>  <ordered_mapped_smiles>  (4) 
[CH2:1]([CH2:2][CH:3][CH:4]([H:6])[H:7])[H:5]

>  <level_of_theory>  (4) 
wb97xd/def2tzvp

>  <lot_method>  (4) 
wb97xd

>  <lot_basis>  (4) 
def2tzvp

>  <spin_multiplicity>  (4) 
2.0

>  <optical_isomers>  (4) 
1.0

>  <modes>  (4) 
IdealGasTranslation(mass=(51.0235, 'amu')),         NonlinearRotor(             inertia = ([1.72772, 120.696, 122.423

>  <frequency_value>  (4) 
unknown

>  <frequency_units>  (4) 
unknown

>  <frequency_list>  (4) 
unknown

>  <arkane_path>  (4) 
/home/calvin/Dropbox/PersonalFolders/Calvin/HAb_Converged/rxn_1796/output/Species/rxn_1796_CtC[C]=C/arkane/output.py

>  <path_exists>  (4) 
True

>  <E0_value>  (4) 
-404373.41163430345

>  <E0_units>  (4) 
kJ/mol

>  <thermo_class>  (4) 
NASA

>  <Cp0_value>  (4) 
33.257888

>  <Cp0_units>  (4) 
J/(mol*K)

>  <CpInf_value>  (4) 
157.97496800000002

>  <CpInf_units>  (4) 
J/(mol*K)

>  <Tmin_value>  (4) 
10.0

>  <Tmin_units>  (4) 
K

>  <Tmax_value>  (4) 
3000.0

>  <Tmax_units>  (4) 
K

>  <polynomials>  (4) 
[{"name": "polynomial1", "class": "NASAPolynomial", "Tmin_value": 10.0, "Tmin_units": "K", "Tmax_value": 324.95068907984773, "Tmax_units": "K", "coeffs": [3.8609641671025465, 0.012108139741422677, 9.28895177382183e-05, -3.603273599901652e-07, 3.9419375598293685e-10, -48634890.062607124, 7.523242411873869]}, {"name": "polynomial2", "class": "NASAPolynomial", "Tmin_value": 324.95068907984773, "Tmin_units": "K", "Tmax_value": 3000.0, "Tmax_units": "K", "coeffs": [4.571584395950888, 0.01908833277746668, -1.1931655920194625e-05, 3.66875581606257e-09, -4.3674335891128755e-13, -48635019.28217917, 3.6160310118769776]}]

>  <H298_value>  (4) 
-96643.63013324048

>  <H298_units>  (4) 
kcal/mol

>  <S298_value>  (4) 
69.25587800254026

>  <S298_units>  (4) 
cal/(mol*K)

>  <Cp_T_value_list>  (4) 
[18.515982157269402, 20.90833815805641, 22.980323895636886, 24.770603054113984, 27.63310740538972, 29.729153173337146, 32.84632832580307, 34.54515875131743, 35.539258489756044]

>  <Cp_T_units>  (4) 
cal/(mol*K)

>  <T_list>  (4) 
[300.0, 400.0, 500.0, 600.0, 800.0, 1000.0, 1500.0, 2000.0, 2400.0]

>  <T_units>  (4) 
K

>  <yaml_path>  (4) 
/home/calvin/Dropbox/PersonalFolders/Calvin/HAb_Converged/rxn_1796/output/Species/rxn_1796_CtC[C]=C/rxn_1796_CtCC=C.yml

>  <frequencies_cm1>  (4) 
[60.944494715, 224.90750320063995, 350.55273360068, 378.97518584015995, 541.805141748, 666.4752602325999, 890.05743526648, 901.2506213380799, 969.4947214482399, 1424.2882922065198, 1805.7630607031601, 2002.6326628422398, 3064.4128000059595, 3135.0191430662, 3426.46773401764]

>  <ZPE_kJmol>  (4) 
118.68781105781596

>  <E_elec_kJmol>  (4) 
-404492.0994453613

>  <E0_minus_Eelec_plus_ZPE_kJmol>  (4) 
0.0

>  <rxn>  (4) 
rxn_1796

>  <species_type>  (4) 
p1

>  <species_folder>  (4) 
rxn_1796_CtC[C]=C

>  <frequencies_cm1_list>  (4) 
[60.944494715, 224.90750320063995, 350.55273360068, 378.97518584015995, 541.805141748, 666.4752602325999, 890.05743526648, 901.2506213380799, 969.4947214482399, 1424.2882922065198, 1805.7630607031601, 2002.6326628422398, 3064.4128000059595, 3135.0191430662, 3426.46773401764]

>  <E0_kJmol>  (4) 
-404373

>  <H298_kJmol>  (4) 
-404357

$$$$

     RDKit          3D

  5  4  0  0  0  0  0  0  0  0999 V2000
    2.6310   -0.6994   -0.0464 S   0  0  0  0  0  0  0  0  0  1  0  0
    1.1422   -0.3024    0.0751 C   0  0  0  0  0  3  0  0  0  2  0  0
   -0.1294    0.0366    0.1789 C   0  0  0  0  0  0  0  0  0  3  0  0
   -1.3085    0.3505    0.2755 C   0  0  0  0  0  0  0  0  0  4  0  0
   -2.3329    0.6248    0.3586 H   0  0  0  0  0  0  0  0  0  5  0  0
  1  2  1  0
  2  3  1  0
  3  4  1  0
  4  5  1  0
M  RAD  1   2   2
M  END
>  <rmg_smiles>  (5) 
[CH][C][C][S]

>  <rmg_adjacency_list>  (5) 
multiplicity 2
1 S u0 p2 c0 {3,S}
2 C u0 p1 c0 {3,S} {4,S}
3 C u1 p1 c0 {1,S} {2,S}
4 C u0 p1 c0 {2,S} {5,S}
5 H u0 p0 c0 {4,S}


>  <multiplicity>  (5) 
2

>  <reaction>  (5) 
rxn_1796

>  <type>  (5) 
r2

>  <role_mapnums>  (5) 
{}

>  <role_mapidx>  (5) 
{}

>  <ordered_mapped_smiles>  (5) 
[SH:1][CH:2][CH2:3][CH2:4][H:5]

>  <level_of_theory>  (5) 
wb97xd/def2tzvp

>  <lot_method>  (5) 
wb97xd

>  <lot_basis>  (5) 
def2tzvp

>  <spin_multiplicity>  (5) 
2.0

>  <optical_isomers>  (5) 
1.0

>  <modes>  (5) 
IdealGasTranslation(mass=(68.9799, 'amu')),         LinearRotor(inertia=(188.074, 'amu*angstrom^2'), symmetry=1),         HarmonicOscillator(             frequencies = ([93.4202, 167.233, 201.951, 376.371, 540.963, 717.176, 781.53, 1596.23, 2040.7, 3466.71

>  <frequency_value>  (5) 
unknown

>  <frequency_units>  (5) 
unknown

>  <frequency_list>  (5) 
unknown

>  <arkane_path>  (5) 
/home/calvin/Dropbox/PersonalFolders/Calvin/HAb_Converged/rxn_1796/output/Species/rxn_1796_S=[C]CtC/arkane/output.py

>  <path_exists>  (5) 
True

>  <E0_value>  (5) 
-1346748.5277362268

>  <E0_units>  (5) 
kJ/mol

>  <thermo_class>  (5) 
NASA

>  <Cp0_value>  (5) 
29.100652

>  <Cp0_units>  (5) 
J/(mol*K)

>  <CpInf_value>  (5) 
112.245372

>  <CpInf_units>  (5) 
J/(mol*K)

>  <Tmin_value>  (5) 
10.0

>  <Tmin_units>  (5) 
K

>  <Tmax_value>  (5) 
3000.0

>  <Tmax_units>  (5) 
K

>  <polynomials>  (5) 
[{"name": "polynomial1", "class": "NASAPolynomial", "Tmin_value": 10.0, "Tmin_units": "K", "Tmax_value": 769.279978314041, "Tmax_units": "K", "coeffs": [3.111185565908605, 0.029935136078296606, -5.2245896658889945e-05, 4.76463066807816e-08, -1.6957447175230754e-11, -161976427.2936214, 9.39755921540055]}, {"name": "polynomial2", "class": "NASAPolynomial", "Tmin_value": 769.279978314041, "Tmin_units": "K", "Tmax_value": 3000.0, "Tmax_units": "K", "coeffs": [6.436358226184358, 0.009331166677727086, -5.608493435355311e-06, 1.6295657532282161e-09, -1.8300027914912125e-13, -161976840.82623369, -5.134900348031153]}]

>  <H298_value>  (5) 
-321876.87057313824

>  <H298_units>  (5) 
kcal/mol

>  <S298_value>  (5) 
67.78358933436938

>  <S298_units>  (5) 
cal/(mol*K)

>  <Cp_T_value_list>  (5) 
[16.96814156607185, 18.562793036030506, 19.699629789629945, 20.5828122770904, 22.000833188256266, 23.062717691880067, 24.616209566912243, 25.38306437326615, 25.797602756718277]

>  <Cp_T_units>  (5) 
cal/(mol*K)

>  <T_list>  (5) 
[300.0, 400.0, 500.0, 600.0, 800.0, 1000.0, 1500.0, 2000.0, 2400.0]

>  <T_units>  (5) 
K

>  <yaml_path>  (5) 
/home/calvin/Dropbox/PersonalFolders/Calvin/HAb_Converged/rxn_1796/output/Species/rxn_1796_S=[C]CtC/rxn_1796_S=CCtC.yml

>  <frequencies_cm1>  (5) 
[92.29914968611999, 165.22653378452, 199.52712545792, 371.85412206331995, 534.4712014262401, 708.5698802441998, 772.1512973220799, 1577.0718485911998, 2016.2155598051997, 3425.10807092428]

>  <ZPE_kJmol>  (5) 
58.99083595811415

>  <E_elec_kJmol>  (5) 
-1346807.518572185

>  <E0_minus_Eelec_plus_ZPE_kJmol>  (5) 
0.0

>  <rxn>  (5) 
rxn_1796

>  <species_type>  (5) 
r1

>  <species_folder>  (5) 
rxn_1796_S=[C]CtC

>  <frequencies_cm1_list>  (5) 
[92.29914968611999, 165.22653378452, 199.52712545792, 371.85412206331995, 534.4712014262401, 708.5698802441998, 772.1512973220799, 1577.0718485911998, 2016.2155598051997, 3425.10807092428]

>  <E0_kJmol>  (5) 
-1.34675e+06

>  <H298_kJmol>  (5) 
-1.34673e+06

$$$$
