
     RDKit          3D

 10  9  0  0  0  0  0  0  0  0999 V2000
    0.7251   -0.4639   -1.6279 C   0  0  0  0  0  0  0  0  0  1  0  0
    0.0306   -0.5463   -0.4980 C   0  0  0  0  0  0  0  0  0  2  0  0
   -0.0369    0.5253    0.4921 C   0  0  0  0  0  0  0  0  0  3  0  0
   -0.7220    0.4611    1.6204 C   0  0  0  0  0  0  0  0  0  4  0  0
    1.2914    0.4265   -1.8776 H   0  0  0  0  0  0  0  0  0  5  0  0
    0.7505   -1.2804   -2.3376 H   0  0  0  0  0  0  0  0  0  6  0  0
   -0.5277   -1.4503   -0.2731 H   0  0  0  0  0  0  0  0  0  7  0  0
    0.5234    1.4306    0.2650 H   0  0  0  0  0  0  0  0  0  8  0  0
   -1.3224   -0.3681    1.9781 H   0  0  0  0  0  0  0  0  0  9  0  0
   -0.6858    1.3336    2.2634 H   0  0  0  0  0  0  0  0  0 10  0  0
  1  5  1  0
  1  6  1  0
  1  2  1  0
  2  7  1  0
  2  3  1  0
  3  4  1  0
  3  8  1  0
  4  9  1  0
  4 10  1  0
M  END
>  <rmg_smiles>  (1) 
[CH2][CH][CH][CH2]

>  <rmg_adjacency_list>  (1) 
1  C u0 p0 c0 {2,S} {3,S} {5,S}
2  C u0 p0 c0 {1,S} {4,S} {6,S}
3  C u0 p0 c0 {1,S} {7,S} {8,S}
4  C u0 p0 c0 {2,S} {9,S} {10,S}
5  H u0 p0 c0 {1,S}
6  H u0 p0 c0 {2,S}
7  H u0 p0 c0 {3,S}
8  H u0 p0 c0 {3,S}
9  H u0 p0 c0 {4,S}
10 H u0 p0 c0 {4,S}


>  <multiplicity>  (1) 
1

>  <reaction>  (1) 
rxn_180

>  <type>  (1) 
r1h

>  <role_mapnums>  (1) 
{"r1h_a": 4, "r1h_h": 10}

>  <role_mapidx>  (1) 
{"r1h_a": 3, "r1h_h": 9}

>  <ordered_mapped_smiles>  (1) 
[CH:1]([CH:2]([CH:3]([CH:4]([H:9])[H:10])[H:8])[H:7])([H:5])[H:6]

>  <mol_properties>  (1) 
{"3": {"label": "donator", "atom_type": "Cs"}, "9": {"label": "d_hydrogen", "atom_type": "H0"}}

>  <level_of_theory>  (1) 
wb97xd/def2tzvp

>  <lot_method>  (1) 
wb97xd

>  <lot_basis>  (1) 
def2tzvp

>  <spin_multiplicity>  (1) 
1.0

>  <optical_isomers>  (1) 
1.0

>  <modes>  (1) 
IdealGasTranslation(mass=(54.047, 'amu')),         NonlinearRotor(             inertia = ([11.9182, 113.061, 124.979

>  <frequency_value>  (1) 
unknown

>  <frequency_units>  (1) 
unknown

>  <frequency_list>  (1) 
unknown

>  <arkane_path>  (1) 
/home/calvin/Dropbox/PersonalFolders/Calvin/HAb_Converged/rxn_180/output/Species/rxn_180_C=CC=C/arkane/output.py

>  <path_exists>  (1) 
True

>  <E0_value>  (1) 
-409338.1696024378

>  <E0_units>  (1) 
kJ/mol

>  <thermo_class>  (1) 
NASA

>  <Cp0_value>  (1) 
33.257888

>  <Cp0_units>  (1) 
J/(mol*K)

>  <CpInf_value>  (1) 
232.805216

>  <CpInf_units>  (1) 
J/(mol*K)

>  <Tmin_value>  (1) 
10.0

>  <Tmin_units>  (1) 
K

>  <Tmax_value>  (1) 
3000.0

>  <Tmax_units>  (1) 
K

>  <polynomials>  (1) 
[{"name": "polynomial1", "class": "NASAPolynomial", "Tmin_value": 10.0, "Tmin_units": "K", "Tmax_value": 477.25150837589547, "Tmax_units": "K", "coeffs": [3.9644918263777202, 0.0020596769963902215, 8.674853780374631e-05, -1.450839919461119e-07, 7.838009270341474e-11, -49232008.066253, 7.365433669817705]}, {"name": "polynomial2", "class": "NASAPolynomial", "Tmin_value": 477.25150837589547, "Tmin_units": "K", "Tmax_value": 3000.0, "Tmax_units": "K", "coeffs": [-0.2016346126607574, 0.03684948174336166, -2.2193862153022103e-05, 6.534948821102615e-09, -7.488372760157006e-13, -49231608.95215794, 24.398107945208505]}]

>  <H298_value>  (1) 
-97830.61157155824

>  <H298_units>  (1) 
kcal/mol

>  <S298_value>  (1) 
66.15772377359508

>  <S298_units>  (1) 
cal/(mol*K)

>  <Cp_T_value_list>  (1) 
[18.098233407620363, 22.632858336014493, 26.717409141232952, 30.270647037570512, 35.994368828752485, 40.221251390017414, 46.50234453691136, 49.720054530985024, 51.45868146938158]

>  <Cp_T_units>  (1) 
cal/(mol*K)

>  <T_list>  (1) 
[300.0, 400.0, 500.0, 600.0, 800.0, 1000.0, 1500.0, 2000.0, 2400.0]

>  <T_units>  (1) 
K

>  <yaml_path>  (1) 
/home/calvin/Dropbox/PersonalFolders/Calvin/HAb_Converged/rxn_180/output/Species/rxn_180_C=CC=C/rxn_180_C=CC=C.yml

>  <frequencies_cm1>  (1) 
[162.86429083444, 299.37995899604, 518.85567680856, 535.67292385724, 782.5273121405999, 895.6128263903599, 951.29034336492, 952.5882035904, 1000.9317802431998, 1006.4047675432399, 1052.23502756892, 1221.82209703164, 1311.4568564135998, 1314.3066553213998, 1409.56547568044, 1464.2884816955202, 1663.07397273888, 1726.1678338590398, 3116.4851496875194, 3119.6920318319594, 3127.2663166399198, 3132.3341518060793, 3211.3044829860796, 3211.503625560359]

>  <ZPE_kJmol>  (1) 
222.43148839891296

>  <E_elec_kJmol>  (1) 
-409560.6010908368

>  <E0_minus_Eelec_plus_ZPE_kJmol>  (1) 
0.0

>  <rxn>  (1) 
rxn_180

>  <species_type>  (1) 
r0

>  <species_folder>  (1) 
rxn_180_C=CC=C

>  <frequencies_cm1_list>  (1) 
[162.86429083444, 299.37995899604, 518.85567680856, 535.67292385724, 782.5273121405999, 895.6128263903599, 951.29034336492, 952.5882035904, 1000.9317802431998, 1006.4047675432399, 1052.23502756892, 1221.82209703164, 1311.4568564135998, 1314.3066553213998, 1409.56547568044, 1464.2884816955202, 1663.07397273888, 1726.1678338590398, 3116.4851496875194, 3119.6920318319594, 3127.2663166399198, 3132.3341518060793, 3211.3044829860796, 3211.503625560359]

>  <E0_kJmol>  (1) 
-409338

>  <H298_kJmol>  (1) 
-409323

$$$$

     RDKit          3D

 12 12  0  0  0  0  0  0  0  0999 V2000
   -0.2221   -2.0831   -1.2670 H   0  0  0  0  0  0  0  0  0  1  0  0
   -0.1260   -1.1582   -0.6983 C   0  0  0  0  0  0  0  0  0  2  0  0
   -0.9976   -0.1250   -0.9677 C   0  0  0  0  0  0  0  0  0  3  0  0
   -0.8658    1.0581   -0.2495 C   0  0  0  0  0  0  0  0  0  4  0  0
    0.1273    1.1793    0.7127 C   0  0  0  0  0  0  0  0  0  5  0  0
    0.9936    0.1243    0.9637 C   0  0  0  0  0  0  0  0  0  6  0  0
    0.8696   -1.0625    0.2502 C   0  0  0  0  0  0  0  0  0  7  0  0
   -1.7675   -0.2316   -1.7224 H   0  0  0  0  0  0  0  0  0  8  0  0
   -1.5383    1.8852   -0.4418 H   0  0  0  0  0  0  0  0  0  9  0  0
    0.2271    2.1022    1.2701 H   0  0  0  0  0  0  0  0  0 10  0  0
    1.7674    0.2251    1.7151 H   0  0  0  0  0  0  0  0  0 11  0  0
    1.5410   -1.8923    0.4354 H   0  0  0  0  0  0  0  0  0 12  0  0
  1  2  1  0
  2  7  1  0
  2  3  1  0
  3  4  1  0
  3  8  1  0
  4  5  1  0
  4  9  1  0
  5  6  1  0
  5 10  1  0
  6  7  1  0
  6 11  1  0
  7 12  1  0
M  END
>  <rmg_smiles>  (2) 
[CH]1[CH][CH][CH][CH][CH]1

>  <rmg_adjacency_list>  (2) 
1  C u0 p0 c0 {2,S} {6,S} {7,S}
2  C u0 p0 c0 {1,S} {3,S} {8,S}
3  C u0 p0 c0 {2,S} {4,S} {9,S}
4  C u0 p0 c0 {3,S} {5,S} {10,S}
5  C u0 p0 c0 {4,S} {6,S} {11,S}
6  C u0 p0 c0 {1,S} {5,S} {12,S}
7  H u0 p0 c0 {1,S}
8  H u0 p0 c0 {2,S}
9  H u0 p0 c0 {3,S}
10 H u0 p0 c0 {4,S}
11 H u0 p0 c0 {5,S}
12 H u0 p0 c0 {6,S}


>  <multiplicity>  (2) 
1

>  <reaction>  (2) 
rxn_180

>  <type>  (2) 
r2h

>  <role_mapnums>  (2) 
{"r2h_a": 2, "r2h_h": 1}

>  <role_mapidx>  (2) 
{"r2h_a": 1, "r2h_h": 0}

>  <ordered_mapped_smiles>  (2) 
[H:1][CH:2]1[CH:3]([H:8])[CH:4]([H:9])[CH:5]([H:10])[CH:6]([H:11])[CH:7]1[H:12]

>  <mol_properties>  (2) 
{"0": {"label": "a_hydrogen", "atom_type": "H0"}, "1": {"label": "acceptor", "atom_type": "Cs"}}

>  <level_of_theory>  (2) 
wb97xd/def2tzvp

>  <lot_method>  (2) 
wb97xd

>  <lot_basis>  (2) 
def2tzvp

>  <spin_multiplicity>  (2) 
1.0

>  <optical_isomers>  (2) 
1.0

>  <modes>  (2) 
IdealGasTranslation(mass=(78.0469, 'amu')),         NonlinearRotor(             inertia = ([87.7329, 87.7329, 175.465

>  <frequency_value>  (2) 
unknown

>  <frequency_units>  (2) 
unknown

>  <frequency_list>  (2) 
unknown

>  <arkane_path>  (2) 
/home/calvin/Dropbox/PersonalFolders/Calvin/HAb_Converged/rxn_180/output/Species/rxn_180_c1ccccc1/arkane/output.py

>  <path_exists>  (2) 
True

>  <E0_value>  (2) 
-609504.360370392

>  <E0_units>  (2) 
kJ/mol

>  <thermo_class>  (2) 
NASA

>  <Cp0_value>  (2) 
33.257888

>  <Cp0_units>  (2) 
J/(mol*K)

>  <CpInf_value>  (2) 
282.692048

>  <CpInf_units>  (2) 
J/(mol*K)

>  <Tmin_value>  (2) 
10.0

>  <Tmin_units>  (2) 
K

>  <Tmax_value>  (2) 
3000.0

>  <Tmax_units>  (2) 
K

>  <polynomials>  (2) 
[{"name": "polynomial1", "class": "NASAPolynomial", "Tmin_value": 10.0, "Tmin_units": "K", "Tmax_value": 624.592263586622, "Tmax_units": "K", "coeffs": [4.233168258053532, -0.019045525749694137, 0.00020733289574214212, -3.229069809315715e-07, 1.6291912332876307e-10, -73306442.69933616, 7.126695957154937]}, {"name": "polynomial2", "class": "NASAPolynomial", "Tmin_value": 624.592263586622, "Tmin_units": "K", "Tmax_value": 3000.0, "Tmax_units": "K", "coeffs": [-1.8698187272419042, 0.050228720875929805, -3.153624591495123e-05, 9.439495887577878e-09, -1.0810156458482927e-12, -73306269.19580704, 28.983618873639625]}]

>  <H298_value>  (2) 
-145671.69164689348

>  <H298_units>  (2) 
kcal/mol

>  <S298_value>  (2) 
64.08076207186494

>  <S298_units>  (2) 
cal/(mol*K)

>  <Cp_T_value_list>  (2) 
[19.436126678110945, 26.41574535371564, 32.51606760943964, 37.38353889791204, 44.752284810021976, 50.04011810550739, 57.434969988722415, 60.93243343986719, 62.90784632965772]

>  <Cp_T_units>  (2) 
cal/(mol*K)

>  <T_list>  (2) 
[300.0, 400.0, 500.0, 600.0, 800.0, 1000.0, 1500.0, 2000.0, 2400.0]

>  <T_units>  (2) 
K

>  <yaml_path>  (2) 
/home/calvin/Dropbox/PersonalFolders/Calvin/HAb_Converged/rxn_180/output/Species/rxn_180_c1ccccc1/rxn_180_c1ccccc1.yml

>  <frequencies_cm1>  (2) 
[411.08520919648, 411.08520919648, 619.4913466731599, 619.4913466731599, 688.7723615666399, 717.7579066023599, 868.2066879782399, 868.2066879782399, 984.4304145192399, 984.4304145192399, 1003.7129092978, 1017.3782100845998, 1018.6966712660399, 1060.29000134928, 1060.29000134928, 1165.64329012872, 1194.6494361204, 1194.6494361204, 1323.1101305016398, 1373.28719223488, 1510.9015780476798, 1510.9015780476798, 1649.40867195208, 1649.40867195208, 3149.73509260696, 3159.4312758787996, 3159.4312758787996, 3175.33521387992, 3175.33521387992, 3185.60135693332]

>  <ZPE_kJmol>  (2) 
262.6411261645067

>  <E_elec_kJmol>  (2) 
-609767.0014965564

>  <E0_minus_Eelec_plus_ZPE_kJmol>  (2) 
0.0

>  <rxn>  (2) 
rxn_180

>  <species_type>  (2) 
p0

>  <species_folder>  (2) 
rxn_180_c1ccccc1

>  <frequencies_cm1_list>  (2) 
[411.08520919648, 411.08520919648, 619.4913466731599, 619.4913466731599, 688.7723615666399, 717.7579066023599, 868.2066879782399, 868.2066879782399, 984.4304145192399, 984.4304145192399, 1003.7129092978, 1017.3782100845998, 1018.6966712660399, 1060.29000134928, 1060.29000134928, 1165.64329012872, 1194.6494361204, 1194.6494361204, 1323.1101305016398, 1373.28719223488, 1510.9015780476798, 1510.9015780476798, 1649.40867195208, 1649.40867195208, 3149.73509260696, 3159.4312758787996, 3159.4312758787996, 3175.33521387992, 3175.33521387992, 3185.60135693332]

>  <E0_kJmol>  (2) 
-609504

>  <H298_kJmol>  (2) 
-609490

$$$$

     RDKit          3D

 21 20  0  0  0  0  0  0  0  0999 V2000
    0.9380   -2.7353   -3.8696 C   0  0  0  0  0  0  0  0  0  1  0  0
    0.2435   -2.8177   -2.7397 C   0  0  0  0  0  0  0  0  0  2  0  0
    0.1760   -1.7461   -1.7496 C   0  0  0  0  0  0  0  0  0  3  0  0
   -0.5091   -1.8103   -0.6214 C   0  0  0  0  0  0  0  0  0  4  0  0
    1.5043   -1.8449   -4.1194 H   0  0  0  0  0  0  0  0  0  5  0  0
    0.9634   -3.5518   -4.5793 H   0  0  0  0  0  0  0  0  0  6  0  0
   -0.3148   -3.7217   -2.5148 H   0  0  0  0  0  0  0  0  0  7  0  0
    0.7363   -0.8408   -1.9767 H   0  0  0  0  0  0  0  0  0  8  0  0
   -1.1095   -2.6395   -0.2636 H   0  0  0  0  0  0  0  0  0  9  0  0
   -0.4649   -0.7460    0.1630 H   0  0  0  0  0  0  0  0  0 10  0  0
   -0.3482    0.3768    0.8534 C   0  0  0  0  0  3  0  0  0 11  0  0
   -1.2198    1.4101    0.5840 C   0  0  0  0  0  0  0  0  0 12  0  0
   -1.0880    2.5932    1.3022 C   0  0  0  0  0  0  0  0  0 13  0  0
   -0.0949    2.7144    2.2644 C   0  0  0  0  0  0  0  0  0 14  0  0
    0.7714    1.6593    2.5154 C   0  0  0  0  0  0  0  0  0 15  0  0
    0.6473    0.4725    1.8019 C   0  0  0  0  0  0  0  0  0 16  0  0
   -1.9897    1.3034   -0.1707 H   0  0  0  0  0  0  0  0  0 17  0  0
   -1.7605    3.4203    1.1099 H   0  0  0  0  0  0  0  0  0 18  0  0
    0.0049    3.6372    2.8218 H   0  0  0  0  0  0  0  0  0 19  0  0
    1.5452    1.7601    3.2667 H   0  0  0  0  0  0  0  0  0 20  0  0
    1.3188   -0.3572    1.9871 H   0  0  0  0  0  0  0  0  0 21  0  0
  1  5  1  0
  1  6  1  0
  1  2  1  0
  2  3  1  0
  2  7  1  0
  3  4  1  0
  3  8  1  0
  4 10  1  0
  4  9  1  0
 11 16  1  0
 11 12  1  0
 12 17  1  0
 12 13  1  0
 13 18  1  0
 13 14  1  0
 14 15  1  0
 14 19  1  0
 15 20  1  0
 15 16  1  0
 16 21  1  0
M  RAD  1  11   2
M  END
>  <rmg_smiles>  (3) 
[CH2][CH][CH][CH2].[C]1[CH][CH][CH][CH][CH]1

>  <rmg_adjacency_list>  (3) 
multiplicity 2
1  C u0 p0 c0 {2,S} {3,S} {14,S}
2  C u0 p0 c0 {1,S} {6,S} {13,S}
3  C u0 p0 c0 {1,S} {7,S} {15,S}
4  C u0 p0 c0 {5,S} {8,S} {11,S}
5  C u0 p0 c0 {4,S} {9,S} {12,S}
6  C u0 p0 c0 {2,S} {10,S} {16,S}
7  C u0 p0 c0 {3,S} {10,S} {17,S}
8  C u0 p0 c0 {4,S} {18,S} {19,S}
9  C u0 p0 c0 {5,S} {20,S} {21,S}
10 C u1 p1 c0 {6,S} {7,S}
11 H u0 p0 c0 {4,S}
12 H u0 p0 c0 {5,S}
13 H u0 p0 c0 {2,S}
14 H u0 p0 c0 {1,S}
15 H u0 p0 c0 {3,S}
16 H u0 p0 c0 {6,S}
17 H u0 p0 c0 {7,S}
18 H u0 p0 c0 {8,S}
19 H u0 p0 c0 {8,S}
20 H u0 p0 c0 {9,S}
21 H u0 p0 c0 {9,S}


>  <multiplicity>  (3) 
2

>  <reaction>  (3) 
rxn_180

>  <type>  (3) 
ts

>  <role_mapnums>  (3) 
{"*2": 10, "*1": 4, "*3": 11, "*0": 3, "*4": 12}

>  <role_mapidx>  (3) 
{"*2": 9, "*1": 3, "*3": 10, "*0": 2, "*4": 11}

>  <ordered_mapped_smiles>  (3) 
[CH:1]([CH:2]([CH:3]([CH:4]([H:9])[H:10])[H:8])[H:7])([H:5])[H:6].[CH:11]1[CH:12]([H:17])[CH:13]([H:18])[CH:14]([H:19])[CH:15]([H:20])[CH:16]1[H:21]

>  <mol_properties>  (3) 
{"2": {"label": "*0", "atom_type": "Cs"}, "3": {"label": "*1", "atom_type": "Cs"}, "9": {"label": "*2", "atom_type": "H0"}, "10": {"label": "*3", "atom_type": "C2s"}, "11": {"label": "*4", "atom_type": "Cs"}}

>  <level_of_theory>  (3) 
wb97xd/def2tzvp

>  <lot_method>  (3) 
wb97xd

>  <lot_basis>  (3) 
def2tzvp

>  <spin_multiplicity>  (3) 
2.0

>  <optical_isomers>  (3) 
2.0

>  <modes>  (3) 
IdealGasTranslation(mass=(131.086, 'amu')),         NonlinearRotor(             inertia = ([131.938, 1141.56, 1186.75

>  <frequency_value>  (3) 
-1618.19

>  <frequency_units>  (3) 
cm^-1

>  <frequency_list>  (3) 
unknown

>  <arkane_path>  (3) 
/home/calvin/Dropbox/PersonalFolders/Calvin/HAb_Converged/rxn_180/output/rxns/TS0/arkane/output.py

>  <path_exists>  (3) 
True

>  <E0_value>  (3) 
-1017030.0

>  <E0_units>  (3) 
kJ/mol

>  <thermo_class>  (3) 
unknown

>  <Cp0_value>  (3) 
unknown

>  <Cp0_units>  (3) 
unknown

>  <CpInf_value>  (3) 
unknown

>  <CpInf_units>  (3) 
unknown

>  <Tmin_value>  (3) 
unknown

>  <Tmin_units>  (3) 
unknown

>  <Tmax_value>  (3) 
unknown

>  <Tmax_units>  (3) 
unknown

>  <polynomials>  (3) 
unknown

>  <H298_value>  (3) 
unknown

>  <H298_units>  (3) 
unknown

>  <S298_value>  (3) 
unknown

>  <S298_units>  (3) 
unknown

>  <Cp_T_value_list>  (3) 
unknown

>  <Cp_T_units>  (3) 
unknown

>  <T_list>  (3) 
unknown

>  <T_units>  (3) 
unknown

>  <yaml_path>  (3) 
unknown

>  <frequencies_cm1>  (3) 
unknown

>  <ZPE_kJmol>  (3) 
unknown

>  <E_elec_kJmol>  (3) 
unknown

>  <E0_minus_Eelec_plus_ZPE_kJmol>  (3) 
unknown

>  <rxn>  (3) 
unknown

>  <species_type>  (3) 
unknown

>  <species_folder>  (3) 
unknown

>  <frequencies_cm1_list>  (3) 
[]

>  <ts_imag_freq_cm1>  (3) 
-1637.8414

>  <ts_freq_out_path>  (3) 
/home/calvin/Dropbox/PersonalFolders/Calvin/HAb_Converged/rxn_180/output/rxns/TS0/geometry/freq.out

>  <E0_kJmol>  (3) 
-1.01703e+06

>  <H298_kJmol>  (3) 
unknown

$$$$

     RDKit          3D

  9  8  0  0  0  0  0  0  0  0999 V2000
    2.0099   -0.3824    0.1105 C   0  0  0  0  0  3  0  0  0  1  0  0
    0.8387    0.2039    0.1202 C   0  0  0  0  0  0  0  0  0  2  0  0
   -0.4453   -0.4760    0.2776 C   0  0  0  0  0  0  0  0  0  3  0  0
   -1.6140    0.1558    0.2822 C   0  0  0  0  0  0  0  0  0  4  0  0
    3.0434   -0.0892    0.0119 H   0  0  0  0  0  0  0  0  0  5  0  0
    0.7972    1.2910    0.0022 H   0  0  0  0  0  0  0  0  0  6  0  0
   -0.4093   -1.5537    0.3949 H   0  0  0  0  0  0  0  0  0  7  0  0
   -1.6754    1.2323    0.1666 H   0  0  0  0  0  0  0  0  0  8  0  0
   -2.5453   -0.3817    0.4013 H   0  0  0  0  0  0  0  0  0  9  0  0
  1  5  1  0
  1  2  1  0
  2  6  1  0
  2  3  1  0
  3  4  1  0
  3  7  1  0
  4  8  1  0
  4  9  1  0
M  RAD  1   1   2
M  END
>  <rmg_smiles>  (4) 
[CH][CH][CH][CH2]

>  <rmg_adjacency_list>  (4) 
multiplicity 2
1 C u0 p0 c0 {2,S} {3,S} {5,S}
2 C u0 p0 c0 {1,S} {4,S} {6,S}
3 C u0 p0 c0 {1,S} {7,S} {8,S}
4 C u1 p1 c0 {2,S} {9,S}
5 H u0 p0 c0 {1,S}
6 H u0 p0 c0 {2,S}
7 H u0 p0 c0 {3,S}
8 H u0 p0 c0 {3,S}
9 H u0 p0 c0 {4,S}


>  <multiplicity>  (4) 
2

>  <reaction>  (4) 
rxn_180

>  <type>  (4) 
r1

>  <role_mapnums>  (4) 
{}

>  <role_mapidx>  (4) 
{}

>  <ordered_mapped_smiles>  (4) 
[CH:1]([CH:2]([CH:3]([CH:4]([H:8])[H:9])[H:7])[H:6])[H:5]

>  <level_of_theory>  (4) 
wb97xd/def2tzvp

>  <lot_method>  (4) 
wb97xd

>  <lot_basis>  (4) 
def2tzvp

>  <spin_multiplicity>  (4) 
2.0

>  <optical_isomers>  (4) 
1.0

>  <modes>  (4) 
IdealGasTranslation(mass=(53.0391, 'amu')),         NonlinearRotor(             inertia = ([10.2066, 109.408, 119.615

>  <frequency_value>  (4) 
unknown

>  <frequency_units>  (4) 
unknown

>  <frequency_list>  (4) 
unknown

>  <arkane_path>  (4) 
/home/calvin/Dropbox/PersonalFolders/Calvin/HAb_Converged/rxn_180/output/Species/rxn_180_[CH]=CC=C/arkane/output.py

>  <path_exists>  (4) 
True

>  <E0_value>  (4) 
-407562.334745849

>  <E0_units>  (4) 
kJ/mol

>  <thermo_class>  (4) 
NASA

>  <Cp0_value>  (4) 
33.257888

>  <Cp0_units>  (4) 
J/(mol*K)

>  <CpInf_value>  (4) 
207.8618

>  <CpInf_units>  (4) 
J/(mol*K)

>  <Tmin_value>  (4) 
10.0

>  <Tmin_units>  (4) 
K

>  <Tmax_value>  (4) 
3000.0

>  <Tmax_units>  (4) 
K

>  <polynomials>  (4) 
[{"name": "polynomial1", "class": "NASAPolynomial", "Tmin_value": 10.0, "Tmin_units": "K", "Tmax_value": 505.74731242422956, "Tmax_units": "K", "coeffs": [3.96064429940432, 0.0024056015239670857, 8.949485172909904e-05, -1.6609662703148472e-07, 9.808156360385445e-11, -49018424.92642287, 8.559390641292739]}, {"name": "polynomial2", "class": "NASAPolynomial", "Tmin_value": 505.74731242422956, "Tmin_units": "K", "Tmax_value": 3000.0, "Tmax_units": "K", "coeffs": [1.0689991370359069, 0.03234050878879861, -2.0242375435200747e-05, 6.176851806615051e-09, -7.293387657578186e-13, -49018222.78775905, 19.645390564717605]}]

>  <H298_value>  (4) 
-97406.16530436472

>  <H298_units>  (4) 
kcal/mol

>  <S298_value>  (4) 
68.64282522285143

>  <S298_units>  (4) 
cal/(mol*K)

>  <Cp_T_value_list>  (4) 
[17.977687179104613, 22.103231083314164, 25.64525230597464, 28.666898355845493, 33.48462201413847, 36.991144613170896, 42.10694823108235, 44.76363315176057, 46.26460616773741]

>  <Cp_T_units>  (4) 
cal/(mol*K)

>  <T_list>  (4) 
[300.0, 400.0, 500.0, 600.0, 800.0, 1000.0, 1500.0, 2000.0, 2400.0]

>  <T_units>  (4) 
K

>  <yaml_path>  (4) 
/home/calvin/Dropbox/PersonalFolders/Calvin/HAb_Converged/rxn_180/output/Species/rxn_180_[CH]=CC=C/rxn_180_CH=CC=C.yml

>  <frequencies_cm1>  (4) 
[166.31151746508, 300.602282383, 512.11916420964, 562.2687580016, 738.07044917892, 787.75995495444, 871.4410380639599, 945.8036220942399, 953.5633155058399, 1028.32418468468, 1171.0270066196, 1243.79645005564, 1312.6860467858799, 1435.80422658816, 1639.67815375364, 1700.1282255255999, 3027.5302218522397, 3120.5160700703595, 3147.66813002564, 3212.8564216684, 3226.90627363312]

>  <ZPE_kJmol>  (4) 
186.04844131426813

>  <E_elec_kJmol>  (4) 
-407748.3831871633

>  <E0_minus_Eelec_plus_ZPE_kJmol>  (4) 
0.0

>  <rxn>  (4) 
rxn_180

>  <species_type>  (4) 
p1

>  <species_folder>  (4) 
rxn_180_[CH]=CC=C

>  <frequencies_cm1_list>  (4) 
[166.31151746508, 300.602282383, 512.11916420964, 562.2687580016, 738.07044917892, 787.75995495444, 871.4410380639599, 945.8036220942399, 953.5633155058399, 1028.32418468468, 1171.0270066196, 1243.79645005564, 1312.6860467858799, 1435.80422658816, 1639.67815375364, 1700.1282255255999, 3027.5302218522397, 3120.5160700703595, 3147.66813002564, 3212.8564216684, 3226.90627363312]

>  <E0_kJmol>  (4) 
-407562

>  <H298_kJmol>  (4) 
-407547

$$$$

     RDKit          3D

 11 11  0  0  0  0  0  0  0  0999 V2000
    0.1524   -1.5397    0.0698 C   0  0  0  0  0  3  0  0  0  1  0  0
   -1.1218   -1.0406    0.0516 C   0  0  0  0  0  0  0  0  0  2  0  0
   -1.2464    0.3470   -0.0114 C   0  0  0  0  0  0  0  0  0  3  0  0
   -0.1137    1.1487   -0.0521 C   0  0  0  0  0  0  0  0  0  4  0  0
    1.1542    0.5837   -0.0308 C   0  0  0  0  0  0  0  0  0  5  0  0
    1.3041   -0.8014    0.0319 C   0  0  0  0  0  0  0  0  0  6  0  0
   -1.9955   -1.6793    0.0840 H   0  0  0  0  0  0  0  0  0  7  0  0
   -2.2319    0.7966   -0.0284 H   0  0  0  0  0  0  0  0  0  8  0  0
   -0.2203    2.2248   -0.1009 H   0  0  0  0  0  0  0  0  0  9  0  0
    2.0325    1.2173   -0.0630 H   0  0  0  0  0  0  0  0  0 10  0  0
    2.2862   -1.2570    0.0492 H   0  0  0  0  0  0  0  0  0 11  0  0
  1  6  1  0
  1  2  1  0
  2  7  1  0
  2  3  1  0
  3  4  1  0
  3  8  1  0
  4  5  1  0
  4  9  1  0
  5  6  1  0
  5 10  1  0
  6 11  1  0
M  RAD  1   1   2
M  END
>  <rmg_smiles>  (5) 
[C]1[CH][CH][CH][CH][CH]1

>  <rmg_adjacency_list>  (5) 
multiplicity 2
1  C u0 p0 c0 {2,S} {3,S} {8,S}
2  C u0 p0 c0 {1,S} {4,S} {7,S}
3  C u0 p0 c0 {1,S} {5,S} {9,S}
4  C u0 p0 c0 {2,S} {6,S} {10,S}
5  C u0 p0 c0 {3,S} {6,S} {11,S}
6  C u1 p1 c0 {4,S} {5,S}
7  H u0 p0 c0 {2,S}
8  H u0 p0 c0 {1,S}
9  H u0 p0 c0 {3,S}
10 H u0 p0 c0 {4,S}
11 H u0 p0 c0 {5,S}


>  <multiplicity>  (5) 
2

>  <reaction>  (5) 
rxn_180

>  <type>  (5) 
r2

>  <role_mapnums>  (5) 
{}

>  <role_mapidx>  (5) 
{}

>  <ordered_mapped_smiles>  (5) 
[CH:1]1[CH:2]([H:7])[CH:3]([H:8])[CH:4]([H:9])[CH:5]([H:10])[CH:6]1[H:11]

>  <level_of_theory>  (5) 
wb97xd/def2tzvp

>  <lot_method>  (5) 
wb97xd

>  <lot_basis>  (5) 
def2tzvp

>  <spin_multiplicity>  (5) 
2.0

>  <optical_isomers>  (5) 
1.0

>  <modes>  (5) 
IdealGasTranslation(mass=(77.0391, 'amu')),         NonlinearRotor(             inertia = ([79.4834, 89.154, 168.637

>  <frequency_value>  (5) 
unknown

>  <frequency_units>  (5) 
unknown

>  <frequency_list>  (5) 
unknown

>  <arkane_path>  (5) 
/home/calvin/Dropbox/PersonalFolders/Calvin/HAb_Converged/rxn_180/output/Species/rxn_180_[c]1ccccc1/arkane/output.py

>  <path_exists>  (5) 
True

>  <E0_value>  (5) 
-607724.3998530591

>  <E0_units>  (5) 
kJ/mol

>  <thermo_class>  (5) 
NASA

>  <Cp0_value>  (5) 
33.257888

>  <Cp0_units>  (5) 
J/(mol*K)

>  <CpInf_value>  (5) 
257.748632

>  <CpInf_units>  (5) 
J/(mol*K)

>  <Tmin_value>  (5) 
10.0

>  <Tmin_units>  (5) 
K

>  <Tmax_value>  (5) 
3000.0

>  <Tmax_units>  (5) 
K

>  <polynomials>  (5) 
[{"name": "polynomial1", "class": "NASAPolynomial", "Tmin_value": 10.0, "Tmin_units": "K", "Tmax_value": 611.9514440069146, "Tmax_units": "K", "coeffs": [4.21092824796689, -0.0177158055371586, 0.00019979619343695558, -3.2072542312861555e-07, 1.663400132916073e-10, -73092362.08808899, 9.541913883825746]}, {"name": "polynomial2", "class": "NASAPolynomial", "Tmin_value": 611.9514440069146, "Tmin_units": "K", "Tmax_value": 3000.0, "Tmax_units": "K", "coeffs": [-0.9065651052715874, 0.045726326043511574, -2.922673270471325e-05, 8.862920022768984e-09, -1.0248092407500463e-12, -73092297.33007778, 27.12926551119779]}]

>  <H298_value>  (5) 
-145246.28547837675

>  <H298_units>  (5) 
kcal/mol

>  <S298_value>  (5) 
68.80259293434003

>  <S298_units>  (5) 
cal/(mol*K)

>  <Cp_T_value_list>  (5) 
[19.0088457147948, 25.48368626323164, 31.015617142413397, 35.350513599609414, 41.905097827045225, 46.56251177649668, 52.95315854009716, 55.93105668249137, 57.650713362445174]

>  <Cp_T_units>  (5) 
cal/(mol*K)

>  <T_list>  (5) 
[300.0, 400.0, 500.0, 600.0, 800.0, 1000.0, 1500.0, 2000.0, 2400.0]

>  <T_units>  (5) 
K

>  <yaml_path>  (5) 
/home/calvin/Dropbox/PersonalFolders/Calvin/HAb_Converged/rxn_180/output/Species/rxn_180_[c]1ccccc1/rxn_180_c1ccccc1.yml

>  <frequencies_cm1>  (5) 
[400.5512537155999, 426.67326587288, 597.8672099004799, 615.68016982056, 676.79633916856, 724.72789670216, 824.4571245045198, 899.6574807438399, 971.9119002808799, 984.9523054035599, 991.6407491052399, 1020.6812300235198, 1047.53114262472, 1072.8977863968, 1169.36519617216, 1172.49654147808, 1297.26966474248, 1311.9787472979199, 1460.7382502850799, 1471.6292890026, 1588.58778297284, 1641.45670295152, 3150.80634231688, 3156.9248262369997, 3168.1111453232797, 3171.7231796016, 3181.6597073596404]

>  <ZPE_kJmol>  (5) 
228.47946828382223

>  <E_elec_kJmol>  (5) 
-607952.8793213429

>  <E0_minus_Eelec_plus_ZPE_kJmol>  (5) 
0.0

>  <rxn>  (5) 
rxn_180

>  <species_type>  (5) 
r1

>  <species_folder>  (5) 
rxn_180_[c]1ccccc1

>  <frequencies_cm1_list>  (5) 
[400.5512537155999, 426.67326587288, 597.8672099004799, 615.68016982056, 676.79633916856, 724.72789670216, 824.4571245045198, 899.6574807438399, 971.9119002808799, 984.9523054035599, 991.6407491052399, 1020.6812300235198, 1047.53114262472, 1072.8977863968, 1169.36519617216, 1172.49654147808, 1297.26966474248, 1311.9787472979199, 1460.7382502850799, 1471.6292890026, 1588.58778297284, 1641.45670295152, 3150.80634231688, 3156.9248262369997, 3168.1111453232797, 3171.7231796016, 3181.6597073596404]

>  <E0_kJmol>  (5) 
-607724

>  <H298_kJmol>  (5) 
-607710

$$$$
