
     RDKit          3D

 13 12  0  0  0  0  0  0  0  0999 V2000
   -0.7015   -0.9372   -2.0053 C   0  0  0  0  0  0  0  0  0  1  0  0
   -0.0142   -0.3699   -1.0159 C   0  0  0  0  0  0  0  0  0  2  0  0
   -0.6065    0.4691    0.0335 C   0  0  0  0  0  0  0  0  0  3  0  0
    0.0478    0.5890    1.3464 C   0  0  0  0  0  0  0  0  0  4  0  0
    1.2840    0.2193    1.6778 C   0  0  0  0  0  0  0  0  0  5  0  0
   -0.2081   -1.5139   -2.7769 H   0  0  0  0  0  0  0  0  0  6  0  0
   -1.7811   -0.8512   -2.0646 H   0  0  0  0  0  0  0  0  0  7  0  0
    1.0656   -0.4841   -1.0063 H   0  0  0  0  0  0  0  0  0  8  0  0
   -0.5691    1.4756   -0.3848 H   0  0  0  0  0  0  0  0  0  9  0  0
   -1.6886    0.3550    0.1063 H   0  0  0  0  0  0  0  0  0 10  0  0
   -0.5549    1.0787    2.1066 H   0  0  0  0  0  0  0  0  0 11  0  0
    1.9494   -0.2834    0.9866 H   0  0  0  0  0  0  0  0  0 12  0  0
    1.6663    0.3987    2.6740 H   0  0  0  0  0  0  0  0  0 13  0  0
  1  7  1  0
  1  6  1  0
  1  2  1  0
  2  8  1  0
  2  3  1  0
  3  4  1  0
  3  9  1  0
  3 10  1  0
  4  5  1  0
  4 11  1  0
  5 12  1  0
  5 13  1  0
M  END
>  <rmg_smiles>  (1) 
[CH2][CH]C[CH][CH2]

>  <rmg_adjacency_list>  (1) 
1  C u0 p0 c0 {2,S} {3,S} {6,S} {7,S}
2  C u0 p0 c0 {1,S} {4,S} {8,S}
3  C u0 p0 c0 {1,S} {5,S} {9,S}
4  C u0 p0 c0 {2,S} {10,S} {11,S}
5  C u0 p0 c0 {3,S} {12,S} {13,S}
6  H u0 p0 c0 {1,S}
7  H u0 p0 c0 {1,S}
8  H u0 p0 c0 {2,S}
9  H u0 p0 c0 {3,S}
10 H u0 p0 c0 {4,S}
11 H u0 p0 c0 {4,S}
12 H u0 p0 c0 {5,S}
13 H u0 p0 c0 {5,S}


>  <multiplicity>  (1) 
1

>  <reaction>  (1) 
rxn_1149

>  <type>  (1) 
r1h

>  <role_mapnums>  (1) 
{"r1h_a": 3, "r1h_h": 9}

>  <role_mapidx>  (1) 
{"r1h_a": 2, "r1h_h": 8}

>  <ordered_mapped_smiles>  (1) 
[CH:1]([CH:2]([C:3]([CH:4]([CH:5]([H:12])[H:13])[H:11])([H:9])[H:10])[H:8])([H:6])[H:7]

>  <mol_properties>  (1) 
{"2": {"label": "donator", "atom_type": "Cs"}, "8": {"label": "d_hydrogen", "atom_type": "H0"}}

>  <level_of_theory>  (1) 
wb97xd/def2tzvp

>  <lot_method>  (1) 
wb97xd

>  <lot_basis>  (1) 
def2tzvp

>  <spin_multiplicity>  (1) 
1.0

>  <optical_isomers>  (1) 
2.0

>  <modes>  (1) 
IdealGasTranslation(mass=(68.0626, 'amu')),         NonlinearRotor(             inertia = ([45.0412, 159.938, 187.579

>  <frequency_value>  (1) 
unknown

>  <frequency_units>  (1) 
unknown

>  <frequency_list>  (1) 
unknown

>  <arkane_path>  (1) 
/home/calvin/Dropbox/PersonalFolders/Calvin/HAb_Converged/rxn_1149/output/Species/rxn_1149_C=CCC=C/arkane/output.py

>  <path_exists>  (1) 
True

>  <E0_value>  (1) 
-512473.3799039456

>  <E0_units>  (1) 
kJ/mol

>  <thermo_class>  (1) 
NASA

>  <Cp0_value>  (1) 
33.257888

>  <Cp0_units>  (1) 
J/(mol*K)

>  <CpInf_value>  (1) 
307.635464

>  <CpInf_units>  (1) 
J/(mol*K)

>  <Tmin_value>  (1) 
10.0

>  <Tmin_units>  (1) 
K

>  <Tmax_value>  (1) 
3000.0

>  <Tmax_units>  (1) 
K

>  <polynomials>  (1) 
[{"name": "polynomial1", "class": "NASAPolynomial", "Tmin_value": 10.0, "Tmin_units": "K", "Tmax_value": 819.4804820196184, "Tmax_units": "K", "coeffs": [3.8786961323103277, 0.01518848526354921, 5.629175519915376e-05, -8.158967068239976e-08, 3.30459758185792e-11, -61636312.679365546, 10.298540277465028]}, {"name": "polynomial2", "class": "NASAPolynomial", "Tmin_value": 819.4804820196184, "Tmin_units": "K", "Tmax_value": 3000.0, "Tmax_units": "K", "coeffs": [0.9713570478533602, 0.04440309225960069, -2.468286623666531e-05, 6.656489578832237e-09, -7.002700885295111e-13, -61636340.62723716, 20.6681030649648]}]

>  <H298_value>  (1) 
-122479.74618776135

>  <H298_units>  (1) 
kcal/mol

>  <S298_value>  (1) 
77.03784100856907

>  <S298_units>  (1) 
cal/(mol*K)

>  <Cp_T_value_list>  (1) 
[22.98452912921813, 28.98342495343222, 34.60231709225981, 39.57761952390819, 47.33114131422195, 52.95468648559353, 61.52407504834919, 65.76395981018108, 67.86608281001313]

>  <Cp_T_units>  (1) 
cal/(mol*K)

>  <T_list>  (1) 
[300.0, 400.0, 500.0, 600.0, 800.0, 1000.0, 1500.0, 2000.0, 2400.0]

>  <T_units>  (1) 
K

>  <yaml_path>  (1) 
/home/calvin/Dropbox/PersonalFolders/Calvin/HAb_Converged/rxn_1149/output/Species/rxn_1149_C=CCC=C/rxn_1149_C=CCC=C.yml

>  <frequencies_cm1>  (1) 
[87.95234797856001, 151.90458226372, 257.19606817528, 416.50326061396, 498.01437636235994, 571.25077480016, 682.49593698416, 887.8393990081199, 919.5923391278, 958.3564712591999, 961.16506825508, 963.55477914644, 1034.0581174268798, 1039.2220903875198, 1080.8909573092799, 1137.2757737718, 1245.9046145488799, 1315.20623039832, 1324.3393208739199, 1346.8492987528798, 1434.93211945252, 1443.44718124932, 1463.70478794332, 1713.3403052812798, 1720.18668964532, 2995.26912481888, 3030.3800207600398, 3111.8568015818396, 3116.1074654949202, 3123.6062134643594, 3128.7427184837197, 3202.1645255251597, 3207.6031778986]

>  <ZPE_kJmol>  (1) 
296.4999886896896

>  <E_elec_kJmol>  (1) 
-512769.8798926352

>  <E0_minus_Eelec_plus_ZPE_kJmol>  (1) 
0.0

>  <rxn>  (1) 
rxn_1149

>  <species_type>  (1) 
r1

>  <species_folder>  (1) 
rxn_1149_C=CCC=C

>  <frequencies_cm1_list>  (1) 
[87.95234797856001, 151.90458226372, 257.19606817528, 416.50326061396, 498.01437636235994, 571.25077480016, 682.49593698416, 887.8393990081199, 919.5923391278, 958.3564712591999, 961.16506825508, 963.55477914644, 1034.0581174268798, 1039.2220903875198, 1080.8909573092799, 1137.2757737718, 1245.9046145488799, 1315.20623039832, 1324.3393208739199, 1346.8492987528798, 1434.93211945252, 1443.44718124932, 1463.70478794332, 1713.3403052812798, 1720.18668964532, 2995.26912481888, 3030.3800207600398, 3111.8568015818396, 3116.1074654949202, 3123.6062134643594, 3128.7427184837197, 3202.1645255251597, 3207.6031778986]

>  <E0_kJmol>  (1) 
-512473

>  <H298_kJmol>  (1) 
-512455

$$$$

     RDKit          3D

 12 11  0  0  0  0  0  0  0  0999 V2000
   -0.0216    0.7697    1.5413 C   0  0  0  0  0  0  0  0  0  1  0  0
    0.2927   -0.1780    0.4155 C   0  0  0  0  0  0  0  0  0  2  0  0
   -0.9333   -0.1299   -0.8675 S   0  0  0  0  0  0  0  0  0  3  0  0
    1.7298   -0.2272   -0.0232 C   0  0  0  0  0  0  0  0  0  4  0  0
   -1.0584    0.6764    1.8686 H   0  0  0  0  0  0  0  0  0  5  0  0
    0.1493    1.8115    1.2487 H   0  0  0  0  0  0  0  0  0  6  0  0
    0.6278    0.5533    2.3924 H   0  0  0  0  0  0  0  0  0  7  0  0
   -0.3881   -1.0772   -1.6432 H   0  0  0  0  0  0  0  0  0  8  0  0
    2.3736   -0.4067    0.8417 H   0  0  0  0  0  0  0  0  0  9  0  0
    1.8985   -1.0298   -0.7435 H   0  0  0  0  0  0  0  0  0 10  0  0
    2.0353    0.7156   -0.4889 H   0  0  0  0  0  0  0  0  0 11  0  0
    0.1808   -1.1584    0.8785 H   0  0  0  0  0  0  0  0  0 12  0  0
  1  5  1  0
  1  7  1  0
  1  6  1  0
  1  2  1  0
  2 12  1  0
  2  3  1  0
  2  4  1  0
  3  8  1  0
  4  9  1  0
  4 10  1  0
  4 11  1  0
M  END
>  <rmg_smiles>  (2) 
CC(S)C

>  <rmg_adjacency_list>  (2) 
1  S u0 p2 c0 {2,S} {12,S}
2  C u0 p0 c0 {1,S} {3,S} {4,S} {5,S}
3  C u0 p0 c0 {2,S} {6,S} {7,S} {8,S}
4  C u0 p0 c0 {2,S} {9,S} {10,S} {11,S}
5  H u0 p0 c0 {2,S}
6  H u0 p0 c0 {3,S}
7  H u0 p0 c0 {3,S}
8  H u0 p0 c0 {3,S}
9  H u0 p0 c0 {4,S}
10 H u0 p0 c0 {4,S}
11 H u0 p0 c0 {4,S}
12 H u0 p0 c0 {1,S}


>  <multiplicity>  (2) 
1

>  <reaction>  (2) 
rxn_1149

>  <type>  (2) 
r2h

>  <role_mapnums>  (2) 
{"r2h_a": 2, "r2h_h": 12}

>  <role_mapidx>  (2) 
{"r2h_a": 1, "r2h_h": 11}

>  <ordered_mapped_smiles>  (2) 
[C:1]([C:2]([S:3][H:8])([C:4]([H:9])([H:10])[H:11])[H:12])([H:5])([H:6])[H:7]

>  <mol_properties>  (2) 
{"1": {"label": "acceptor", "atom_type": "Cs"}, "11": {"label": "a_hydrogen", "atom_type": "H0"}}

>  <level_of_theory>  (2) 
wb97xd/def2tzvp

>  <lot_method>  (2) 
wb97xd

>  <lot_basis>  (2) 
def2tzvp

>  <spin_multiplicity>  (2) 
1.0

>  <optical_isomers>  (2) 
1.0

>  <modes>  (2) 
IdealGasTranslation(mass=(76.0347, 'amu')),         NonlinearRotor(             inertia = ([63.6143, 114.445, 159.626

>  <frequency_value>  (2) 
unknown

>  <frequency_units>  (2) 
unknown

>  <frequency_list>  (2) 
unknown

>  <arkane_path>  (2) 
/home/calvin/Dropbox/PersonalFolders/Calvin/HAb_Converged/rxn_1149/output/Species/rxn_1149_CC[S]C/arkane/output.py

>  <path_exists>  (2) 
True

>  <E0_value>  (2) 
-1358037.5822550058

>  <E0_units>  (2) 
kJ/mol

>  <thermo_class>  (2) 
NASA

>  <Cp0_value>  (2) 
33.257888

>  <Cp0_units>  (2) 
J/(mol*K)

>  <CpInf_value>  (2) 
282.692048

>  <CpInf_units>  (2) 
J/(mol*K)

>  <Tmin_value>  (2) 
10.0

>  <Tmin_units>  (2) 
K

>  <Tmax_value>  (2) 
3000.0

>  <Tmax_units>  (2) 
K

>  <polynomials>  (2) 
[{"name": "polynomial1", "class": "NASAPolynomial", "Tmin_value": 10.0, "Tmin_units": "K", "Tmax_value": 320.9959568783199, "Tmax_units": "K", "coeffs": [3.875707707258065, 0.009381393221698805, 0.00011821761563925809, -2.840791683127776e-07, 2.2503054199897307e-10, -163334191.46119478, 9.447715656882277]}, {"name": "polynomial2", "class": "NASAPolynomial", "Tmin_value": 320.9959568783199, "Tmin_units": "K", "Tmax_value": 3000.0, "Tmax_units": "K", "coeffs": [1.4804313687165462, 0.0392293738339864, -2.1260332941863044e-05, 5.597575733417067e-09, -5.766692868203356e-13, -163334037.68600142, 18.28172887429199]}]

>  <H298_value>  (2) 
-324574.4746758071

>  <H298_units>  (2) 
kcal/mol

>  <S298_value>  (2) 
74.54106238673705

>  <S298_units>  (2) 
cal/(mol*K)

>  <Cp_T_value_list>  (2) 
[22.817742792292417, 28.047451919441322, 32.67700803830931, 36.76068886623605, 43.494132537801676, 48.62769564827391, 56.55822768504675, 60.513904730141455, 62.43762055183555]

>  <Cp_T_units>  (2) 
cal/(mol*K)

>  <T_list>  (2) 
[300.0, 400.0, 500.0, 600.0, 800.0, 1000.0, 1500.0, 2000.0, 2400.0]

>  <T_units>  (2) 
K

>  <yaml_path>  (2) 
/home/calvin/Dropbox/PersonalFolders/Calvin/HAb_Converged/rxn_1149/output/Species/rxn_1149_CC[S]C/rxn_1149_CCSC.yml

>  <frequencies_cm1>  (2) 
[200.30996178439997, 239.06722693047996, 267.56521600848, 329.97237859663994, 342.10634165708, 410.44657956172, 623.61153786516, 869.4496123211601, 901.3398921472399, 934.4387613896399, 956.6946608117601, 1108.0979531471198, 1133.34785816876, 1186.1618422648799, 1298.32031349644, 1327.60113890092, 1394.17656157832, 1410.9800746563599, 1469.09537141952, 1472.7211396684797, 1483.6945822098398, 1489.7375292914398, 2684.9363242374397, 3006.5378477289996, 3009.88206957984, 3034.84356121804, 3072.7630541550793, 3080.1175954327996, 3104.83187559948, 3107.40699509448]

>  <ZPE_kJmol>  (2) 
268.8623138646832

>  <E_elec_kJmol>  (2) 
-1358306.4445688706

>  <E0_minus_Eelec_plus_ZPE_kJmol>  (2) 
0.0

>  <rxn>  (2) 
rxn_1149

>  <species_type>  (2) 
p0

>  <species_folder>  (2) 
rxn_1149_CC[S]C

>  <frequencies_cm1_list>  (2) 
[200.30996178439997, 239.06722693047996, 267.56521600848, 329.97237859663994, 342.10634165708, 410.44657956172, 623.61153786516, 869.4496123211601, 901.3398921472399, 934.4387613896399, 956.6946608117601, 1108.0979531471198, 1133.34785816876, 1186.1618422648799, 1298.32031349644, 1327.60113890092, 1394.17656157832, 1410.9800746563599, 1469.09537141952, 1472.7211396684797, 1483.6945822098398, 1489.7375292914398, 2684.9363242374397, 3006.5378477289996, 3009.88206957984, 3034.84356121804, 3072.7630541550793, 3080.1175954327996, 3104.83187559948, 3107.40699509448]

>  <E0_kJmol>  (2) 
-1.35804e+06

>  <H298_kJmol>  (2) 
-1.35802e+06

$$$$

     RDKit          3D

 24 22  0  0  0  0  0  0  0  0999 V2000
   -0.4495    2.3666    0.9532 C   0  0  0  0  0  0  0  0  0  1  0  0
   -0.1352    1.4189   -0.1726 C   0  0  0  0  0  3  0  0  0  2  0  0
   -1.3612    1.4670   -1.4556 S   0  0  0  0  0  0  0  0  0  3  0  0
    1.3019    1.3697   -0.6113 C   0  0  0  0  0  0  0  0  0  4  0  0
   -1.4863    2.2733    1.2805 H   0  0  0  0  0  0  0  0  0  5  0  0
   -0.2786    3.4084    0.6606 H   0  0  0  0  0  0  0  0  0  6  0  0
    0.1999    2.1502    1.8044 H   0  0  0  0  0  0  0  0  0  7  0  0
   -0.8159    0.5197   -2.2313 H   0  0  0  0  0  0  0  0  0  8  0  0
    1.9457    1.1902    0.2536 H   0  0  0  0  0  0  0  0  0  9  0  0
    1.4706    0.5671   -1.3316 H   0  0  0  0  0  0  0  0  0 10  0  0
    1.6074    2.3125   -1.0770 H   0  0  0  0  0  0  0  0  0 11  0  0
   -0.4207   -2.4563   -1.1125 C   0  0  0  0  0  0  0  0  0 12  0  0
    0.2666   -1.8889   -0.1232 C   0  0  0  0  0  0  0  0  0 13  0  0
   -0.3257   -1.0499    0.9262 C   0  0  0  0  0  0  0  0  0 14  0  0
    0.3286   -0.9301    2.2391 C   0  0  0  0  0  0  0  0  0 15  0  0
    1.5648   -1.2998    2.5705 C   0  0  0  0  0  0  0  0  0 16  0  0
    0.0727   -3.0329   -1.8842 H   0  0  0  0  0  0  0  0  0 17  0  0
   -1.5003   -2.3703   -1.1719 H   0  0  0  0  0  0  0  0  0 18  0  0
    1.3464   -2.0032   -0.1135 H   0  0  0  0  0  0  0  0  0 19  0  0
   -0.2817    0.1344    0.4340 H   0  0  0  0  0  0  0  0  0 20  0  0
   -1.4078   -1.1641    0.9990 H   0  0  0  0  0  0  0  0  0 21  0  0
   -0.2741   -0.4404    2.9993 H   0  0  0  0  0  0  0  0  0 22  0  0
    2.2302   -1.8024    1.8794 H   0  0  0  0  0  0  0  0  0 23  0  0
    1.9471   -1.1204    3.5667 H   0  0  0  0  0  0  0  0  0 24  0  0
  1  7  1  0
  1  5  1  0
  1  6  1  0
  1  2  1  0
  2  3  1  0
  2  4  1  0
  3  8  1  0
  4 10  1  0
  4 11  1  0
  4  9  1  0
 12 17  1  0
 12 18  1  0
 12 13  1  0
 13 19  1  0
 13 14  1  0
 14 15  1  0
 14 20  1  0
 14 21  1  0
 15 16  1  0
 15 22  1  0
 16 23  1  0
 16 24  1  0
M  RAD  1   2   2
M  END
>  <rmg_smiles>  (3) 
C[C](S)C.[CH2][CH]C[CH][CH2]

>  <rmg_adjacency_list>  (3) 
multiplicity 2
1  S u0 p2 c0 {5,S} {24,S}
2  C u0 p0 c0 {6,S} {7,S} {10,S} {11,S}
3  C u0 p0 c0 {5,S} {12,S} {13,S} {14,S}
4  C u0 p0 c0 {5,S} {15,S} {16,S} {17,S}
5  C u1 p0 c0 {1,S} {3,S} {4,S}
6  C u0 p0 c0 {2,S} {8,S} {18,S}
7  C u0 p0 c0 {2,S} {9,S} {19,S}
8  C u0 p0 c0 {6,S} {20,S} {21,S}
9  C u0 p0 c0 {7,S} {22,S} {23,S}
10 H u0 p0 c0 {2,S}
11 H u0 p0 c0 {2,S}
12 H u0 p0 c0 {3,S}
13 H u0 p0 c0 {3,S}
14 H u0 p0 c0 {3,S}
15 H u0 p0 c0 {4,S}
16 H u0 p0 c0 {4,S}
17 H u0 p0 c0 {4,S}
18 H u0 p0 c0 {6,S}
19 H u0 p0 c0 {7,S}
20 H u0 p0 c0 {8,S}
21 H u0 p0 c0 {8,S}
22 H u0 p0 c0 {9,S}
23 H u0 p0 c0 {9,S}
24 H u0 p0 c0 {1,S}


>  <multiplicity>  (3) 
2

>  <reaction>  (3) 
rxn_1149

>  <type>  (3) 
ts

>  <role_mapnums>  (3) 
{"*2": 20, "*1": 14, "*3": 2, "*0": 13, "*4": 3}

>  <role_mapidx>  (3) 
{"*2": 19, "*1": 13, "*3": 1, "*0": 12, "*4": 2}

>  <ordered_mapped_smiles>  (3) 
[C:1]([C:2]([S:3][H:8])[C:4]([H:9])([H:10])[H:11])([H:5])([H:6])[H:7].[CH:12]([CH:13]([C:14]([CH:15]([CH:16]([H:23])[H:24])[H:22])([H:20])[H:21])[H:19])([H:17])[H:18]

>  <mol_properties>  (3) 
{"1": {"label": "*3", "atom_type": "Cs"}, "2": {"label": "*4", "atom_type": "S2s"}, "12": {"label": "*0", "atom_type": "Cs"}, "13": {"label": "*1", "atom_type": "Cs"}, "19": {"label": "*2", "atom_type": "H0"}}

>  <level_of_theory>  (3) 
wb97xd/def2tzvp

>  <lot_method>  (3) 
wb97xd

>  <lot_basis>  (3) 
def2tzvp

>  <spin_multiplicity>  (3) 
2.0

>  <optical_isomers>  (3) 
2.0

>  <modes>  (3) 
IdealGasTranslation(mass=(143.089, 'amu')),         NonlinearRotor(             inertia = ([333.44, 571.857, 750.455

>  <frequency_value>  (3) 
-1606.44

>  <frequency_units>  (3) 
cm^-1

>  <frequency_list>  (3) 
unknown

>  <arkane_path>  (3) 
/home/calvin/Dropbox/PersonalFolders/Calvin/HAb_Converged/rxn_1149/output/rxns/TS0/arkane/output.py

>  <path_exists>  (3) 
True

>  <E0_value>  (3) 
-1868790.0

>  <E0_units>  (3) 
kJ/mol

>  <thermo_class>  (3) 
unknown

>  <Cp0_value>  (3) 
unknown

>  <Cp0_units>  (3) 
unknown

>  <CpInf_value>  (3) 
unknown

>  <CpInf_units>  (3) 
unknown

>  <Tmin_value>  (3) 
unknown

>  <Tmin_units>  (3) 
unknown

>  <Tmax_value>  (3) 
unknown

>  <Tmax_units>  (3) 
unknown

>  <polynomials>  (3) 
unknown

>  <H298_value>  (3) 
unknown

>  <H298_units>  (3) 
unknown

>  <S298_value>  (3) 
unknown

>  <S298_units>  (3) 
unknown

>  <Cp_T_value_list>  (3) 
unknown

>  <Cp_T_units>  (3) 
unknown

>  <T_list>  (3) 
unknown

>  <T_units>  (3) 
unknown

>  <yaml_path>  (3) 
unknown

>  <frequencies_cm1>  (3) 
unknown

>  <ZPE_kJmol>  (3) 
unknown

>  <E_elec_kJmol>  (3) 
unknown

>  <E0_minus_Eelec_plus_ZPE_kJmol>  (3) 
unknown

>  <rxn>  (3) 
unknown

>  <species_type>  (3) 
unknown

>  <species_folder>  (3) 
unknown

>  <frequencies_cm1_list>  (3) 
[]

>  <ts_imag_freq_cm1>  (3) 
-1625.9523

>  <ts_freq_out_path>  (3) 
/home/calvin/Dropbox/PersonalFolders/Calvin/HAb_Converged/rxn_1149/output/rxns/TS0/geometry/freq.out

>  <E0_kJmol>  (3) 
-1.86879e+06

>  <H298_kJmol>  (3) 
unknown

$$$$

     RDKit          3D

 12 11  0  0  0  0  0  0  0  0999 V2000
   -2.3791    0.4612   -0.5870 C   0  0  0  0  0  0  0  0  0  1  0  0
   -1.3422   -0.3138   -0.1893 C   0  0  0  0  0  0  0  0  0  2  0  0
   -1.4723   -1.6058    0.3589 C   0  0  0  0  0  3  0  0  0  3  0  0
   -0.3798   -2.3973    0.7671 C   0  0  0  0  0  0  0  0  0  4  0  0
   -0.4849   -3.6397    1.2956 C   0  0  0  0  0  0  0  0  0  5  0  0
   -2.2205    1.4472   -1.0017 H   0  0  0  0  0  0  0  0  0  6  0  0
   -3.4026    0.1153   -0.5011 H   0  0  0  0  0  0  0  0  0  7  0  0
   -0.3330    0.0765   -0.2952 H   0  0  0  0  0  0  0  0  0  8  0  0
   -2.4723   -2.0151    0.4735 H   0  0  0  0  0  0  0  0  0  9  0  0
    0.6117   -1.9687    0.6436 H   0  0  0  0  0  0  0  0  0 10  0  0
    0.3893   -4.2030    1.5920 H   0  0  0  0  0  0  0  0  0 11  0  0
   -1.4516   -4.1084    1.4378 H   0  0  0  0  0  0  0  0  0 12  0  0
  1  7  1  0
  1  6  1  0
  1  2  1  0
  2  8  1  0
  2  3  1  0
  3  4  1  0
  3  9  1  0
  4  5  1  0
  4 10  1  0
  5 11  1  0
  5 12  1  0
M  RAD  1   3   2
M  END
>  <rmg_smiles>  (4) 
[CH2][CH][CH][CH][CH2]

>  <rmg_adjacency_list>  (4) 
multiplicity 2
1  C u1 p0 c0 {2,S} {3,S} {7,S}
2  C u0 p0 c0 {1,S} {4,S} {6,S}
3  C u0 p0 c0 {1,S} {5,S} {8,S}
4  C u0 p0 c0 {2,S} {9,S} {10,S}
5  C u0 p0 c0 {3,S} {11,S} {12,S}
6  H u0 p0 c0 {2,S}
7  H u0 p0 c0 {1,S}
8  H u0 p0 c0 {3,S}
9  H u0 p0 c0 {4,S}
10 H u0 p0 c0 {4,S}
11 H u0 p0 c0 {5,S}
12 H u0 p0 c0 {5,S}


>  <multiplicity>  (4) 
2

>  <reaction>  (4) 
rxn_1149

>  <type>  (4) 
r1

>  <role_mapnums>  (4) 
{}

>  <role_mapidx>  (4) 
{}

>  <ordered_mapped_smiles>  (4) 
[CH:1]([CH:2]([C:3]([CH:4]([CH:5]([H:11])[H:12])[H:10])[H:9])[H:8])([H:6])[H:7]

>  <level_of_theory>  (4) 
wb97xd/def2tzvp

>  <lot_method>  (4) 
wb97xd

>  <lot_basis>  (4) 
def2tzvp

>  <spin_multiplicity>  (4) 
2.0

>  <optical_isomers>  (4) 
1.0

>  <modes>  (4) 
IdealGasTranslation(mass=(67.0548, 'amu')),         NonlinearRotor(             inertia = ([15.7789, 219.5, 235.279

>  <frequency_value>  (4) 
unknown

>  <frequency_units>  (4) 
unknown

>  <frequency_list>  (4) 
unknown

>  <arkane_path>  (4) 
/home/calvin/Dropbox/PersonalFolders/Calvin/HAb_Converged/rxn_1149/output/Species/rxn_1149_C=C[CH]C=C/arkane/output.py

>  <path_exists>  (4) 
True

>  <E0_value>  (4) 
-510855.5740845963

>  <E0_units>  (4) 
kJ/mol

>  <thermo_class>  (4) 
NASA

>  <Cp0_value>  (4) 
33.257888

>  <Cp0_units>  (4) 
J/(mol*K)

>  <CpInf_value>  (4) 
282.692048

>  <CpInf_units>  (4) 
J/(mol*K)

>  <Tmin_value>  (4) 
10.0

>  <Tmin_units>  (4) 
K

>  <Tmax_value>  (4) 
3000.0

>  <Tmax_units>  (4) 
K

>  <polynomials>  (4) 
[{"name": "polynomial1", "class": "NASAPolynomial", "Tmin_value": 10.0, "Tmin_units": "K", "Tmax_value": 495.4878151432132, "Tmax_units": "K", "coeffs": [3.9321249944863483, 0.00423695957790186, 0.0001349399275202858, -2.634227208589526e-07, 1.6274994210018014e-10, -61441731.262755215, 9.350068005934219]}, {"name": "polynomial2", "class": "NASAPolynomial", "Tmin_value": 495.4878151432132, "Tmin_units": "K", "Tmax_value": 3000.0, "Tmax_units": "K", "coeffs": [0.4670964234865551, 0.045134514665170086, -2.799782078865831e-05, 8.451471558998603e-09, -9.87511530345911e-13, -61441546.54518628, 22.032609970692913]}]

>  <H298_value>  (4) 
-122093.21999312405

>  <H298_units>  (4) 
kcal/mol

>  <S298_value>  (4) 
73.53286475276235

>  <S298_units>  (4) 
cal/(mol*K)

>  <Cp_T_value_list>  (4) 
[22.959522992008456, 28.863462234795744, 33.84135772821174, 38.08705038621403, 44.86868164007071, 49.81479641743779, 57.029271536556216, 60.72193750581066, 62.780551438557175]

>  <Cp_T_units>  (4) 
cal/(mol*K)

>  <T_list>  (4) 
[300.0, 400.0, 500.0, 600.0, 800.0, 1000.0, 1500.0, 2000.0, 2400.0]

>  <T_units>  (4) 
K

>  <yaml_path>  (4) 
/home/calvin/Dropbox/PersonalFolders/Calvin/HAb_Converged/rxn_1149/output/Species/rxn_1149_C=C[CH]C=C/rxn_1149_C=CCHC=C.yml

>  <frequencies_cm1>  (4) 
[152.447074104, 206.60012033752, 248.40632696568, 457.56783282756, 491.88902545691997, 588.7066514835999, 627.8209998663199, 832.6631719619199, 870.4315912219199, 882.064264354, 920.7322586909199, 984.0870652532399, 1007.05026416332, 1023.1327437827599, 1134.86546192448, 1248.1157838219199, 1283.31595057224, 1294.9760916455998, 1300.263670342, 1433.84713577196, 1468.49107671136, 1516.66297873116, 1589.96804702216, 3115.7572492435997, 3116.0319286563995, 3124.4645866293595, 3126.14013104744, 3128.61224576264, 3219.8676136801196, 3219.9431505186403]

>  <ZPE_kJmol>  (4) 
260.8752443523687

>  <E_elec_kJmol>  (4) 
-511116.4493289487

>  <E0_minus_Eelec_plus_ZPE_kJmol>  (4) 
0.0

>  <rxn>  (4) 
rxn_1149

>  <species_type>  (4) 
p1

>  <species_folder>  (4) 
rxn_1149_C=C[CH]C=C

>  <frequencies_cm1_list>  (4) 
[152.447074104, 206.60012033752, 248.40632696568, 457.56783282756, 491.88902545691997, 588.7066514835999, 627.8209998663199, 832.6631719619199, 870.4315912219199, 882.064264354, 920.7322586909199, 984.0870652532399, 1007.05026416332, 1023.1327437827599, 1134.86546192448, 1248.1157838219199, 1283.31595057224, 1294.9760916455998, 1300.263670342, 1433.84713577196, 1468.49107671136, 1516.66297873116, 1589.96804702216, 3115.7572492435997, 3116.0319286563995, 3124.4645866293595, 3126.14013104744, 3128.61224576264, 3219.8676136801196, 3219.9431505186403]

>  <E0_kJmol>  (4) 
-510856

>  <H298_kJmol>  (4) 
-510838

$$$$

     RDKit          3D

 11 10  0  0  0  0  0  0  0  0999 V2000
    1.0781   -1.0166   -0.1159 C   0  0  0  0  0  0  0  0  0  1  0  0
    0.2180    0.1942   -0.2297 C   0  0  0  0  0  3  0  0  0  2  0  0
    0.9343    1.7769   -0.3011 S   0  0  0  0  0  0  0  0  0  3  0  0
   -1.1949    0.1490    0.2439 C   0  0  0  0  0  0  0  0  0  4  0  0
    1.4718   -1.1461    0.9024 H   0  0  0  0  0  0  0  0  0  5  0  0
    1.9367   -0.9751   -0.7902 H   0  0  0  0  0  0  0  0  0  6  0  0
    0.5033   -1.9136   -0.3576 H   0  0  0  0  0  0  0  0  0  7  0  0
    2.1166    1.4195   -0.8209 H   0  0  0  0  0  0  0  0  0  8  0  0
   -1.2620    0.0939    1.3399 H   0  0  0  0  0  0  0  0  0  9  0  0
   -1.7600    1.0270   -0.0739 H   0  0  0  0  0  0  0  0  0 10  0  0
   -1.6972   -0.7380   -0.1506 H   0  0  0  0  0  0  0  0  0 11  0  0
  1  5  1  0
  1  7  1  0
  1  6  1  0
  1  2  1  0
  2  3  1  0
  2  4  1  0
  3  8  1  0
  4  9  1  0
  4 10  1  0
  4 11  1  0
M  RAD  1   2   2
M  END
>  <rmg_smiles>  (5) 
C[C](S)C

>  <rmg_adjacency_list>  (5) 
multiplicity 2
1  S u0 p2 c0 {4,S} {11,S}
2  C u0 p0 c0 {4,S} {5,S} {6,S} {7,S}
3  C u0 p0 c0 {4,S} {8,S} {9,S} {10,S}
4  C u1 p0 c0 {1,S} {2,S} {3,S}
5  H u0 p0 c0 {2,S}
6  H u0 p0 c0 {2,S}
7  H u0 p0 c0 {2,S}
8  H u0 p0 c0 {3,S}
9  H u0 p0 c0 {3,S}
10 H u0 p0 c0 {3,S}
11 H u0 p0 c0 {1,S}


>  <multiplicity>  (5) 
2

>  <reaction>  (5) 
rxn_1149

>  <type>  (5) 
r2

>  <role_mapnums>  (5) 
{}

>  <role_mapidx>  (5) 
{}

>  <ordered_mapped_smiles>  (5) 
[C:1]([C:2]([S:3][H:8])[C:4]([H:9])([H:10])[H:11])([H:5])([H:6])[H:7]

>  <level_of_theory>  (5) 
wb97xd/def2tzvp

>  <lot_method>  (5) 
wb97xd

>  <lot_basis>  (5) 
def2tzvp

>  <spin_multiplicity>  (5) 
2.0

>  <optical_isomers>  (5) 
2.0

>  <modes>  (5) 
IdealGasTranslation(mass=(75.0268, 'amu')),         NonlinearRotor(             inertia = ([61.999, 107.328, 162.226

>  <frequency_value>  (5) 
unknown

>  <frequency_units>  (5) 
unknown

>  <frequency_list>  (5) 
unknown

>  <arkane_path>  (5) 
/home/calvin/Dropbox/PersonalFolders/Calvin/HAb_Converged/rxn_1149/output/Species/rxn_1149_C[C][S]C/arkane/output.py

>  <path_exists>  (5) 
True

>  <E0_value>  (5) 
-1356347.4134395572

>  <E0_units>  (5) 
kJ/mol

>  <thermo_class>  (5) 
NASA

>  <Cp0_value>  (5) 
33.257888

>  <Cp0_units>  (5) 
J/(mol*K)

>  <CpInf_value>  (5) 
257.748632

>  <CpInf_units>  (5) 
J/(mol*K)

>  <Tmin_value>  (5) 
10.0

>  <Tmin_units>  (5) 
K

>  <Tmax_value>  (5) 
3000.0

>  <Tmax_units>  (5) 
K

>  <polynomials>  (5) 
[{"name": "polynomial1", "class": "NASAPolynomial", "Tmin_value": 10.0, "Tmin_units": "K", "Tmax_value": 631.511036458598, "Tmax_units": "K", "coeffs": [3.630144501923197, 0.030233799754007962, -1.5729865197854517e-05, 1.0342555122076897e-08, -6.278675853253594e-12, -163130908.91812575, 11.085422231430835]}, {"name": "polynomial2", "class": "NASAPolynomial", "Tmin_value": 631.511036458598, "Tmin_units": "K", "Tmax_value": 3000.0, "Tmax_units": "K", "coeffs": [2.121241242594707, 0.035971217312262126, -2.0284227742328106e-05, 5.57187370145946e-09, -5.981486451043817e-13, -163130642.16838282, 18.274548777693933]}]

>  <H298_value>  (5) 
-324170.22635589016

>  <H298_units>  (5) 
kcal/mol

>  <S298_value>  (5) 
79.79982372204114

>  <S298_units>  (5) 
cal/(mol*K)

>  <Cp_T_value_list>  (5) 
[22.878685143927463, 27.24077654618155, 31.22891087325513, 34.831653006690544, 40.78563883173169, 45.27245080713911, 52.09561404746616, 55.50541234106847, 57.22251846881106]

>  <Cp_T_units>  (5) 
cal/(mol*K)

>  <T_list>  (5) 
[300.0, 400.0, 500.0, 600.0, 800.0, 1000.0, 1500.0, 2000.0, 2400.0]

>  <T_units>  (5) 
K

>  <yaml_path>  (5) 
/home/calvin/Dropbox/PersonalFolders/Calvin/HAb_Converged/rxn_1149/output/Species/rxn_1149_C[C][S]C/rxn_1149_CCSC.yml

>  <frequencies_cm1>  (5) 
[136.00751124791998, 145.49081797484, 227.77790306439996, 252.01836124399998, 317.69420884448, 349.40594705224, 628.3497577359599, 911.91504954004, 945.1100565769199, 959.9015429561998, 985.2063838604, 1047.7989550522, 1210.77998463708, 1266.96565852532, 1390.69500002108, 1406.7156767726399, 1455.1279232786399, 1462.5374004389198, 1466.95287199968, 1477.52802939248, 2689.0427814587997, 2949.1641853804, 2953.29124355772, 3034.22553253924, 3035.0633047482797, 3077.07552093604, 3083.7982995643197]

>  <ZPE_kJmol>  (5) 
232.4682179533116

>  <E_elec_kJmol>  (5) 
-1356579.8816575103

>  <E0_minus_Eelec_plus_ZPE_kJmol>  (5) 
0.0

>  <rxn>  (5) 
rxn_1149

>  <species_type>  (5) 
r0

>  <species_folder>  (5) 
rxn_1149_C[C][S]C

>  <frequencies_cm1_list>  (5) 
[136.00751124791998, 145.49081797484, 227.77790306439996, 252.01836124399998, 317.69420884448, 349.40594705224, 628.3497577359599, 911.91504954004, 945.1100565769199, 959.9015429561998, 985.2063838604, 1047.7989550522, 1210.77998463708, 1266.96565852532, 1390.69500002108, 1406.7156767726399, 1455.1279232786399, 1462.5374004389198, 1466.95287199968, 1477.52802939248, 2689.0427814587997, 2949.1641853804, 2953.29124355772, 3034.22553253924, 3035.0633047482797, 3077.07552093604, 3083.7982995643197]

>  <E0_kJmol>  (5) 
-1.35635e+06

>  <H298_kJmol>  (5) 
-1.35633e+06

$$$$
