
     RDKit          3D

  9  8  0  0  0  0  0  0  0  0999 V2000
    0.1042   -0.9132   -1.5115 C   0  0  0  0  0  0  0  0  0  1  0  0
   -0.1287   -0.8053   -0.0301 C   0  0  0  0  0  0  0  0  0  2  0  0
   -0.0390    0.7890    0.7248 S   0  0  0  0  0  0  0  0  0  3  0  0
    1.0658   -0.4730   -1.7849 H   0  0  0  0  0  0  0  0  0  4  0  0
   -0.6738   -0.3954   -2.0794 H   0  0  0  0  0  0  0  0  0  5  0  0
    0.1124   -1.9624   -1.8141 H   0  0  0  0  0  0  0  0  0  6  0  0
    0.6777   -1.4019    0.3925 H   0  0  0  0  0  0  0  0  0  7  0  0
   -1.0193   -1.3154    0.3327 H   0  0  0  0  0  0  0  0  0  8  0  0
    1.1419    1.1456    0.1973 H   0  0  0  0  0  0  0  0  0  9  0  0
  1  5  1  0
  1  4  1  0
  1  6  1  0
  1  2  1  0
  2  8  1  0
  2  7  1  0
  2  3  1  0
  3  9  1  0
M  END
>  <rmg_smiles>  (1) 
CCS

>  <rmg_adjacency_list>  (1) 
1 S u0 p2 c0 {2,S} {9,S}
2 C u0 p0 c0 {1,S} {3,S} {4,S} {5,S}
3 C u0 p0 c0 {2,S} {6,S} {7,S} {8,S}
4 H u0 p0 c0 {2,S}
5 H u0 p0 c0 {2,S}
6 H u0 p0 c0 {3,S}
7 H u0 p0 c0 {3,S}
8 H u0 p0 c0 {3,S}
9 H u0 p0 c0 {1,S}


>  <multiplicity>  (1) 
1

>  <reaction>  (1) 
rxn_1898

>  <type>  (1) 
r1h

>  <role_mapnums>  (1) 
{"r1h_a": 2, "r1h_h": 7}

>  <role_mapidx>  (1) 
{"r1h_a": 1, "r1h_h": 6}

>  <ordered_mapped_smiles>  (1) 
[C:1]([C:2]([S:3][H:9])([H:7])[H:8])([H:4])([H:5])[H:6]

>  <mol_properties>  (1) 
{"1": {"label": "donator", "atom_type": "Cs"}, "6": {"label": "d_hydrogen", "atom_type": "H0"}}

>  <level_of_theory>  (1) 
wb97xd/def2tzvp

>  <lot_method>  (1) 
wb97xd

>  <lot_basis>  (1) 
def2tzvp

>  <spin_multiplicity>  (1) 
1.0

>  <optical_isomers>  (1) 
2.0

>  <modes>  (1) 
IdealGasTranslation(mass=(62.019, 'amu')),         NonlinearRotor(             inertia = ([17.3187, 95.472, 104.033

>  <frequency_value>  (1) 
unknown

>  <frequency_units>  (1) 
unknown

>  <frequency_list>  (1) 
unknown

>  <arkane_path>  (1) 
/home/calvin/Dropbox/PersonalFolders/Calvin/HAb_Converged/rxn_1898/output/Species/rxn_1898_CCS/arkane/output.py

>  <path_exists>  (1) 
True

>  <E0_value>  (1) 
-1254880.5529024522

>  <E0_units>  (1) 
kJ/mol

>  <thermo_class>  (1) 
NASA

>  <Cp0_value>  (1) 
33.257888

>  <Cp0_units>  (1) 
J/(mol*K)

>  <CpInf_value>  (1) 
207.8618

>  <CpInf_units>  (1) 
J/(mol*K)

>  <Tmin_value>  (1) 
10.0

>  <Tmin_units>  (1) 
K

>  <Tmax_value>  (1) 
3000.0

>  <Tmax_units>  (1) 
K

>  <polynomials>  (1) 
[{"name": "polynomial1", "class": "NASAPolynomial", "Tmin_value": 10.0, "Tmin_units": "K", "Tmax_value": 456.94948299224984, "Tmax_units": "K", "coeffs": [3.912577314484764, 0.006155835235539537, 5.7903825438107485e-05, -1.0305013689181765e-07, 5.821300208274409e-11, -150927266.1091598, 9.021117963799174]}, {"name": "polynomial2", "class": "NASAPolynomial", "Tmin_value": 456.94948299224984, "Tmin_units": "K", "Tmax_value": 3000.0, "Tmax_units": "K", "coeffs": [1.355855578836548, 0.028536757084491292, -1.5565109771775804e-05, 4.138069148493327e-09, -4.3071999280991065e-13, -150927032.45208073, 19.35342692911781]}]

>  <H298_value>  (1) 
-299920.11857407144

>  <H298_units>  (1) 
kcal/mol

>  <S298_value>  (1) 
69.39854649104441

>  <S298_units>  (1) 
cal/(mol*K)

>  <Cp_T_value_list>  (1) 
[17.20889788741788, 20.934361161930582, 24.290211927280414, 27.249513376784144, 32.124901067035445, 35.83897523204632, 41.58221183782978, 44.477584292835935, 45.911331144631184]

>  <Cp_T_units>  (1) 
cal/(mol*K)

>  <T_list>  (1) 
[300.0, 400.0, 500.0, 600.0, 800.0, 1000.0, 1500.0, 2000.0, 2400.0]

>  <T_units>  (1) 
K

>  <yaml_path>  (1) 
/home/calvin/Dropbox/PersonalFolders/Calvin/HAb_Converged/rxn_1898/output/Species/rxn_1898_CCS/rxn_1898_CCS.yml

>  <frequencies_cm1>  (1) 
[202.32885546847996, 256.50936964327997, 331.52431727896, 667.1482247939599, 735.969151671, 875.5955641825599, 988.159187548, 1063.6273562148, 1117.6087278153198, 1273.38628979952, 1303.10660226448, 1402.5542836687198, 1466.616389719, 1477.4456255686398, 1483.85938985752, 2700.25656848636, 3013.3430301811195, 3044.51914353392, 3080.6051513905195, 3088.40604671404, 3107.9357529641197]

>  <ZPE_kJmol>  (1) 
195.4728851436989

>  <E_elec_kJmol>  (1) 
-1255076.025787596

>  <E0_minus_Eelec_plus_ZPE_kJmol>  (1) 
0.0

>  <rxn>  (1) 
rxn_1898

>  <species_type>  (1) 
r1

>  <species_folder>  (1) 
rxn_1898_CCS

>  <frequencies_cm1_list>  (1) 
[202.32885546847996, 256.50936964327997, 331.52431727896, 667.1482247939599, 735.969151671, 875.5955641825599, 988.159187548, 1063.6273562148, 1117.6087278153198, 1273.38628979952, 1303.10660226448, 1402.5542836687198, 1466.616389719, 1477.4456255686398, 1483.85938985752, 2700.25656848636, 3013.3430301811195, 3044.51914353392, 3080.6051513905195, 3088.40604671404, 3107.9357529641197]

>  <E0_kJmol>  (1) 
-1.25488e+06

>  <H298_kJmol>  (1) 
-1.25487e+06

$$$$

     RDKit          3D

 11 10  0  0  0  0  0  0  0  0999 V2000
   -0.6563    0.2673    1.6914 C   0  0  0  0  0  0  0  0  0  1  0  0
   -0.4608    0.1729    0.1906 C   0  0  0  0  0  0  0  0  0  2  0  0
   -0.5443   -1.1397   -0.3715 C   0  0  0  0  0  2  0  0  0  3  0  0
   -0.6738   -2.2214   -0.8783 C   0  0  0  0  0  2  0  0  0  4  0  0
    0.9832    1.1216   -0.3318 S   0  0  0  0  0  0  0  0  0  5  0  0
    0.1654   -0.2088    2.2306 H   0  0  0  0  0  0  0  0  0  6  0  0
   -0.7214    1.3131    1.9960 H   0  0  0  0  0  0  0  0  0  7  0  0
   -1.5855   -0.2300    1.9701 H   0  0  0  0  0  0  0  0  0  8  0  0
   -0.7723   -3.1868   -1.3129 H   0  0  0  0  0  0  0  0  0  9  0  0
    1.0091    0.6832   -1.5965 H   0  0  0  0  0  0  0  0  0 10  0  0
   -1.3147    0.7198   -0.2092 H   0  0  0  0  0  0  0  0  0 11  0  0
  1  8  1  0
  1  7  1  0
  1  6  1  0
  1  2  1  0
  2 11  1  0
  2  5  1  0
  2  3  1  0
  3  4  1  0
  4  9  1  0
  5 10  1  0
M  RAD  2   3   3   4   3
M  END
>  <rmg_smiles>  (2) 
[CH][C]C(S)C

>  <rmg_adjacency_list>  (2) 
1  S u0 p2 c0 {2,S} {10,S}
2  C u0 p0 c0 {1,S} {3,S} {4,S} {6,S}
3  C u0 p0 c0 {2,S} {7,S} {8,S} {9,S}
4  C u0 p1 c0 {2,S} {5,S}
5  C u0 p1 c0 {4,S} {11,S}
6  H u0 p0 c0 {2,S}
7  H u0 p0 c0 {3,S}
8  H u0 p0 c0 {3,S}
9  H u0 p0 c0 {3,S}
10 H u0 p0 c0 {1,S}
11 H u0 p0 c0 {5,S}


>  <multiplicity>  (2) 
1

>  <reaction>  (2) 
rxn_1898

>  <type>  (2) 
r2h

>  <role_mapnums>  (2) 
{"r2h_a": 2, "r2h_h": 11}

>  <role_mapidx>  (2) 
{"r2h_a": 1, "r2h_h": 10}

>  <ordered_mapped_smiles>  (2) 
[C:1]([C:2]([C:3][C:4][H:9])([S:5][H:10])[H:11])([H:6])([H:7])[H:8]

>  <mol_properties>  (2) 
{"1": {"label": "acceptor", "atom_type": "Cs"}, "10": {"label": "a_hydrogen", "atom_type": "H0"}}

>  <level_of_theory>  (2) 
wb97xd/def2tzvp

>  <lot_method>  (2) 
wb97xd

>  <lot_basis>  (2) 
def2tzvp

>  <spin_multiplicity>  (2) 
1.0

>  <optical_isomers>  (2) 
2.0

>  <modes>  (2) 
IdealGasTranslation(mass=(86.019, 'amu')),         NonlinearRotor(             inertia = ([87.6457, 170.909, 240.546

>  <frequency_value>  (2) 
unknown

>  <frequency_units>  (2) 
unknown

>  <frequency_list>  (2) 
unknown

>  <arkane_path>  (2) 
/home/calvin/Dropbox/PersonalFolders/Calvin/HAb_Converged/rxn_1898/output/Species/rxn_1898_CC[CtC]S/arkane/output.py

>  <path_exists>  (2) 
True

>  <E0_value>  (2) 
-1454747.9869848297

>  <E0_units>  (2) 
kJ/mol

>  <thermo_class>  (2) 
NASA

>  <Cp0_value>  (2) 
33.257888

>  <Cp0_units>  (2) 
J/(mol*K)

>  <CpInf_value>  (2) 
257.748632

>  <CpInf_units>  (2) 
J/(mol*K)

>  <Tmin_value>  (2) 
10.0

>  <Tmin_units>  (2) 
K

>  <Tmax_value>  (2) 
3000.0

>  <Tmax_units>  (2) 
K

>  <polynomials>  (2) 
[{"name": "polynomial1", "class": "NASAPolynomial", "Tmin_value": 10.0, "Tmin_units": "K", "Tmax_value": 390.9140632823983, "Tmax_units": "K", "coeffs": [3.858713419231629, 0.010564997140702595, 0.00016329814740577924, -4.5849893030170754e-07, 3.9198883509043327e-10, -174965770.0665913, 10.944004943270295]}, {"name": "polynomial2", "class": "NASAPolynomial", "Tmin_value": 390.9140632823983, "Tmin_units": "K", "Tmax_value": 3000.0, "Tmax_units": "K", "coeffs": [3.5910622176950087, 0.03608103984670987, -2.2011240144551834e-05, 6.581334463032912e-09, -7.656686735052077e-13, -174965923.17532238, 9.75787740899601]}]

>  <H298_value>  (2) 
-347688.46609237033

>  <H298_units>  (2) 
kcal/mol

>  <S298_value>  (2) 
79.59735907954581

>  <S298_units>  (2) 
cal/(mol*K)

>  <Cp_T_value_list>  (2) 
[24.881185185807908, 29.6159028918133, 33.59091324770937, 37.0375095709953, 42.57535430939504, 46.65270848395564, 52.70695189298071, 55.8567148263336, 57.58553478406499]

>  <Cp_T_units>  (2) 
cal/(mol*K)

>  <T_list>  (2) 
[300.0, 400.0, 500.0, 600.0, 800.0, 1000.0, 1500.0, 2000.0, 2400.0]

>  <T_units>  (2) 
K

>  <yaml_path>  (2) 
/home/calvin/Dropbox/PersonalFolders/Calvin/HAb_Converged/rxn_1898/output/Species/rxn_1898_CC[CtC]S/rxn_1898_CCCtCS.yml

>  <frequencies_cm1>  (2) 
[163.65399414624, 200.12455318076, 233.74531330747996, 265.924006517, 317.85214950683996, 472.54472781047997, 536.37335635988, 646.5678697899199, 685.57234640752, 689.34918833352, 869.1543319524001, 892.7836284385199, 1026.9988565179199, 1098.10648950652, 1109.5743549909198, 1265.9630786685998, 1311.01736935312, 1401.32509329644, 1474.4310190131598, 1479.8628044012798, 2220.3023635156, 2695.0513936138, 3023.47870051344, 3043.8255780166, 3101.2679102183997, 3116.5263515994397, 3437.4068416324]

>  <ZPE_kJmol>  (2) 
219.98604213251892

>  <E_elec_kJmol>  (2) 
-1454967.9730269625

>  <E0_minus_Eelec_plus_ZPE_kJmol>  (2) 
0.0

>  <rxn>  (2) 
rxn_1898

>  <species_type>  (2) 
p0

>  <species_folder>  (2) 
rxn_1898_CC[CtC]S

>  <frequencies_cm1_list>  (2) 
[163.65399414624, 200.12455318076, 233.74531330747996, 265.924006517, 317.85214950683996, 472.54472781047997, 536.37335635988, 646.5678697899199, 685.57234640752, 689.34918833352, 869.1543319524001, 892.7836284385199, 1026.9988565179199, 1098.10648950652, 1109.5743549909198, 1265.9630786685998, 1311.01736935312, 1401.32509329644, 1474.4310190131598, 1479.8628044012798, 2220.3023635156, 2695.0513936138, 3023.47870051344, 3043.8255780166, 3101.2679102183997, 3116.5263515994397, 3437.4068416324]

>  <E0_kJmol>  (2) 
-1.45475e+06

>  <H298_kJmol>  (2) 
-1.45473e+06

$$$$

     RDKit          3D

 19 17  0  0  0  0  0  0  0  0999 V2000
    0.3826   -0.7483    2.1317 C   0  0  0  0  0  0  0  0  0  1  0  0
    0.5781   -0.8426    0.6309 C   0  0  0  0  0  0  0  0  0  2  0  0
    0.4946   -2.1552    0.0688 C   0  0  0  0  0  0  0  0  0  3  0  0
    0.3651   -3.2369   -0.4380 C   0  0  0  0  0  0  0  0  0  4  0  0
    2.0221    0.1060    0.1085 S   0  0  0  0  0  0  0  0  0  5  0  0
    1.2042   -1.2243    2.6709 H   0  0  0  0  0  0  0  0  0  6  0  0
    0.3175    0.2976    2.4363 H   0  0  0  0  0  0  0  0  0  7  0  0
   -0.5466   -1.2455    2.4104 H   0  0  0  0  0  0  0  0  0  8  0  0
    0.2665   -4.2023   -0.8727 H   0  0  0  0  0  0  0  0  0  9  0  0
    2.0480   -0.3324   -1.1562 H   0  0  0  0  0  0  0  0  0 10  0  0
   -1.2413    0.4664   -1.8690 C   0  0  0  0  0  0  0  0  0 11  0  0
   -1.4743    0.5743   -0.3876 C   0  0  0  0  0  3  0  0  0 12  0  0
   -1.3845    2.1686    0.3673 S   0  0  0  0  0  0  0  0  0 13  0  0
   -0.2797    0.9066   -2.1424 H   0  0  0  0  0  0  0  0  0 14  0  0
   -2.0193    0.9842   -2.4370 H   0  0  0  0  0  0  0  0  0 15  0  0
   -1.2331   -0.5828   -2.1716 H   0  0  0  0  0  0  0  0  0 16  0  0
   -0.4434   -0.1883    0.1526 H   0  0  0  0  0  0  0  0  0 17  0  0
   -2.3648    0.0642   -0.0248 H   0  0  0  0  0  0  0  0  0 18  0  0
   -0.2037    2.5253   -0.1603 H   0  0  0  0  0  0  0  0  0 19  0  0
  1  8  1  0
  1  7  1  0
  1  6  1  0
  1  2  1  0
  2  5  1  0
  2 17  1  0
  2  3  1  0
  3  4  1  0
  4  9  1  0
  5 10  1  0
 11 14  1  0
 11 12  1  0
 11 16  1  0
 11 15  1  0
 12 18  1  0
 12 13  1  0
 13 19  1  0
M  RAD  1  12   2
M  END
>  <rmg_smiles>  (3) 
[CH][C]C(S)C.C[CH]S

>  <rmg_adjacency_list>  (3) 
multiplicity 2
1  S u0 p2 c0 {3,S} {17,S}
2  S u0 p2 c0 {6,S} {18,S}
3  C u0 p0 c0 {1,S} {4,S} {7,S} {9,S}
4  C u0 p0 c0 {3,S} {10,S} {11,S} {12,S}
5  C u0 p0 c0 {6,S} {13,S} {14,S} {15,S}
6  C u1 p0 c0 {2,S} {5,S} {16,S}
7  C u0 p1 c0 {3,S} {8,S}
8  C u0 p1 c0 {7,S} {19,S}
9  H u0 p0 c0 {3,S}
10 H u0 p0 c0 {4,S}
11 H u0 p0 c0 {4,S}
12 H u0 p0 c0 {4,S}
13 H u0 p0 c0 {5,S}
14 H u0 p0 c0 {5,S}
15 H u0 p0 c0 {5,S}
16 H u0 p0 c0 {6,S}
17 H u0 p0 c0 {1,S}
18 H u0 p0 c0 {2,S}
19 H u0 p0 c0 {8,S}


>  <multiplicity>  (3) 
2

>  <reaction>  (3) 
rxn_1898

>  <type>  (3) 
ts

>  <role_mapnums>  (3) 
{"*2": 17, "*1": 12, "*3": 2, "*0": 5, "*4": 13}

>  <role_mapidx>  (3) 
{"*2": 16, "*1": 11, "*3": 1, "*0": 4, "*4": 12}

>  <ordered_mapped_smiles>  (3) 
[C:1]([C:2]([CH2:3][CH2:4][H:9])([S:5][H:10])[H:17])([H:6])([H:7])[H:8].[C:11]([C:12]([S:13][H:19])[H:18])([H:14])([H:15])[H:16]

>  <mol_properties>  (3) 
{"1": {"label": "*3", "atom_type": "Cs"}, "4": {"label": "*0", "atom_type": "S2s"}, "11": {"label": "*1", "atom_type": "Cs"}, "12": {"label": "*4", "atom_type": "S2s"}, "16": {"label": "*2", "atom_type": "H0"}}

>  <level_of_theory>  (3) 
wb97xd/def2tzvp

>  <lot_method>  (3) 
wb97xd

>  <lot_basis>  (3) 
def2tzvp

>  <spin_multiplicity>  (3) 
2.0

>  <optical_isomers>  (3) 
2.0

>  <modes>  (3) 
IdealGasTranslation(mass=(147.03, 'amu')),         NonlinearRotor(             inertia = ([308.026, 600.826, 677.198

>  <frequency_value>  (3) 
-1692.52

>  <frequency_units>  (3) 
cm^-1

>  <frequency_list>  (3) 
unknown

>  <arkane_path>  (3) 
/home/calvin/Dropbox/PersonalFolders/Calvin/HAb_Converged/rxn_1898/output/rxns/TS0/arkane/output.py

>  <path_exists>  (3) 
True

>  <E0_value>  (3) 
-2707900.0

>  <E0_units>  (3) 
kJ/mol

>  <thermo_class>  (3) 
unknown

>  <Cp0_value>  (3) 
unknown

>  <Cp0_units>  (3) 
unknown

>  <CpInf_value>  (3) 
unknown

>  <CpInf_units>  (3) 
unknown

>  <Tmin_value>  (3) 
unknown

>  <Tmin_units>  (3) 
unknown

>  <Tmax_value>  (3) 
unknown

>  <Tmax_units>  (3) 
unknown

>  <polynomials>  (3) 
unknown

>  <H298_value>  (3) 
unknown

>  <H298_units>  (3) 
unknown

>  <S298_value>  (3) 
unknown

>  <S298_units>  (3) 
unknown

>  <Cp_T_value_list>  (3) 
unknown

>  <Cp_T_units>  (3) 
unknown

>  <T_list>  (3) 
unknown

>  <T_units>  (3) 
unknown

>  <yaml_path>  (3) 
unknown

>  <frequencies_cm1>  (3) 
unknown

>  <ZPE_kJmol>  (3) 
unknown

>  <E_elec_kJmol>  (3) 
unknown

>  <E0_minus_Eelec_plus_ZPE_kJmol>  (3) 
unknown

>  <rxn>  (3) 
unknown

>  <species_type>  (3) 
unknown

>  <species_folder>  (3) 
unknown

>  <frequencies_cm1_list>  (3) 
[]

>  <ts_imag_freq_cm1>  (3) 
-1713.0761

>  <ts_freq_out_path>  (3) 
/home/calvin/Dropbox/PersonalFolders/Calvin/HAb_Converged/rxn_1898/output/rxns/TS0/geometry/freq.out

>  <E0_kJmol>  (3) 
-2.7079e+06

>  <H298_kJmol>  (3) 
unknown

$$$$

     RDKit          3D

  8  7  0  0  0  0  0  0  0  0999 V2000
   -1.0607    0.1793   -0.1423 C   0  0  0  0  0  0  0  0  0  1  0  0
    0.2796    0.0327    0.4820 C   0  0  0  0  0  3  0  0  0  2  0  0
    0.8817   -1.4663    1.0791 S   0  0  0  0  0  0  0  0  0  3  0  0
   -1.3043    1.2328   -0.2850 H   0  0  0  0  0  0  0  0  0  4  0  0
   -1.8444   -0.2641    0.4799 H   0  0  0  0  0  0  0  0  0  5  0  0
   -1.1164   -0.3100   -1.1237 H   0  0  0  0  0  0  0  0  0  6  0  0
    1.0449    0.7826    0.3391 H   0  0  0  0  0  0  0  0  0  7  0  0
   -0.2993   -2.0726    1.2718 H   0  0  0  0  0  0  0  0  0  8  0  0
  1  5  1  0
  1  4  1  0
  1  6  1  0
  1  2  1  0
  2  7  1  0
  2  3  1  0
  3  8  1  0
M  RAD  1   2   2
M  END
>  <rmg_smiles>  (4) 
C[CH]S

>  <rmg_adjacency_list>  (4) 
multiplicity 2
1 S u0 p2 c0 {3,S} {8,S}
2 C u0 p0 c0 {3,S} {4,S} {5,S} {6,S}
3 C u1 p0 c0 {1,S} {2,S} {7,S}
4 H u0 p0 c0 {2,S}
5 H u0 p0 c0 {2,S}
6 H u0 p0 c0 {2,S}
7 H u0 p0 c0 {3,S}
8 H u0 p0 c0 {1,S}


>  <multiplicity>  (4) 
2

>  <reaction>  (4) 
rxn_1898

>  <type>  (4) 
r1

>  <role_mapnums>  (4) 
{}

>  <role_mapidx>  (4) 
{}

>  <ordered_mapped_smiles>  (4) 
[C:1]([C:2]([S:3][H:8])[H:7])([H:4])([H:5])[H:6]

>  <level_of_theory>  (4) 
wb97xd/def2tzvp

>  <lot_method>  (4) 
wb97xd

>  <lot_basis>  (4) 
def2tzvp

>  <spin_multiplicity>  (4) 
2.0

>  <optical_isomers>  (4) 
2.0

>  <modes>  (4) 
IdealGasTranslation(mass=(61.0112, 'amu')),         NonlinearRotor(             inertia = ([13.046, 92.7553, 102.244

>  <frequency_value>  (4) 
unknown

>  <frequency_units>  (4) 
unknown

>  <frequency_list>  (4) 
unknown

>  <arkane_path>  (4) 
/home/calvin/Dropbox/PersonalFolders/Calvin/HAb_Converged/rxn_1898/output/Species/rxn_1898_C[CH]S/arkane/output.py

>  <path_exists>  (4) 
True

>  <E0_value>  (4) 
-1253184.5981829516

>  <E0_units>  (4) 
kJ/mol

>  <thermo_class>  (4) 
NASA

>  <Cp0_value>  (4) 
33.257888

>  <Cp0_units>  (4) 
J/(mol*K)

>  <CpInf_value>  (4) 
182.918384

>  <CpInf_units>  (4) 
J/(mol*K)

>  <Tmin_value>  (4) 
10.0

>  <Tmin_units>  (4) 
K

>  <Tmax_value>  (4) 
3000.0

>  <Tmax_units>  (4) 
K

>  <polynomials>  (4) 
[{"name": "polynomial1", "class": "NASAPolynomial", "Tmin_value": 10.0, "Tmin_units": "K", "Tmax_value": 413.8010480726284, "Tmax_units": "K", "coeffs": [3.7950295729261647, 0.016457708367529925, 9.731711480509379e-06, -3.2015572359360355e-08, 2.0934508459004603e-11, -150723288.9505719, 9.662663267236853]}, {"name": "polynomial2", "class": "NASAPolynomial", "Tmin_value": 413.8010480726284, "Tmin_units": "K", "Tmax_value": 3000.0, "Tmax_units": "K", "coeffs": [3.171701388229353, 0.02248310275825266, -1.2109939387600553e-05, 3.1731034874071525e-09, -3.249234972610705e-13, -150723237.3638374, 12.119854918634292]}]

>  <H298_value>  (4) 
-299514.53540410154

>  <H298_units>  (4) 
kcal/mol

>  <S298_value>  (4) 
72.29191673058813

>  <S298_units>  (4) 
cal/(mol*K)

>  <Cp_T_value_list>  (4) 
[17.712657489437476, 20.710891785101634, 23.373717884324098, 25.72491502627314, 29.60811043312427, 32.57636509573052, 37.18717346712741, 39.514014084536406, 40.66360633897774]

>  <Cp_T_units>  (4) 
cal/(mol*K)

>  <T_list>  (4) 
[300.0, 400.0, 500.0, 600.0, 800.0, 1000.0, 1500.0, 2000.0, 2400.0]

>  <T_units>  (4) 
K

>  <yaml_path>  (4) 
/home/calvin/Dropbox/PersonalFolders/Calvin/HAb_Converged/rxn_1898/output/Species/rxn_1898_C[CH]S/rxn_1898_CCHS.yml

>  <frequencies_cm1>  (4) 
[128.26155180696, 206.51084952836, 328.47537579688, 383.06104210556, 719.5433227855599, 910.4180467402799, 999.9292003864799, 1062.5698404755199, 1120.95294966616, 1318.91440247112, 1398.79117571336, 1459.19317858808, 1469.92627664324, 2677.2315667084, 2962.1771225617995, 3023.7808478675192, 3086.80603913448, 3183.9601474418396]

>  <ZPE_kJmol>  (4) 
158.14937342870658

>  <E_elec_kJmol>  (4) 
-1253342.7475563802

>  <E0_minus_Eelec_plus_ZPE_kJmol>  (4) 
0.0

>  <rxn>  (4) 
rxn_1898

>  <species_type>  (4) 
p1

>  <species_folder>  (4) 
rxn_1898_C[CH]S

>  <frequencies_cm1_list>  (4) 
[128.26155180696, 206.51084952836, 328.47537579688, 383.06104210556, 719.5433227855599, 910.4180467402799, 999.9292003864799, 1062.5698404755199, 1120.95294966616, 1318.91440247112, 1398.79117571336, 1459.19317858808, 1469.92627664324, 2677.2315667084, 2962.1771225617995, 3023.7808478675192, 3086.80603913448, 3183.9601474418396]

>  <E0_kJmol>  (4) 
-1.25318e+06

>  <H298_kJmol>  (4) 
-1.25317e+06

$$$$

     RDKit          3D

 10  9  0  0  0  0  0  0  0  0999 V2000
   -1.2648    0.1959    0.8197 C   0  0  0  0  0  0  0  0  0  1  0  0
   -0.2805    0.0995   -0.3030 C   0  0  0  0  0  3  0  0  0  2  0  0
   -0.0444    1.1347   -1.1797 C   0  0  0  0  0  0  0  0  0  3  0  0
    0.1640    2.0467   -1.9525 C   0  0  0  0  0  0  0  0  0  4  0  0
    0.5686   -1.4168   -0.4488 S   0  0  0  0  0  0  0  0  0  5  0  0
   -2.0466   -0.5638    0.7258 H   0  0  0  0  0  0  0  0  0  6  0  0
   -0.7765    0.0454    1.7871 H   0  0  0  0  0  0  0  0  0  7  0  0
   -1.7371    1.1762    0.8222 H   0  0  0  0  0  0  0  0  0  8  0  0
    0.3433    2.8484   -2.6273 H   0  0  0  0  0  0  0  0  0  9  0  0
    1.3075   -1.0953   -1.5176 H   0  0  0  0  0  0  0  0  0 10  0  0
  1  8  1  0
  1  7  1  0
  1  6  1  0
  1  2  1  0
  2  5  1  0
  2  3  1  0
  3  4  1  0
  4  9  1  0
  5 10  1  0
M  RAD  1   2   2
M  END
>  <rmg_smiles>  (5) 
[CH][C][C](S)C

>  <rmg_adjacency_list>  (5) 
multiplicity 2
1  S u0 p2 c0 {3,S} {9,S}
2  C u0 p0 c0 {3,S} {6,S} {7,S} {8,S}
3  C u1 p0 c0 {1,S} {2,S} {4,S}
4  C u0 p1 c0 {3,S} {5,S}
5  C u0 p1 c0 {4,S} {10,S}
6  H u0 p0 c0 {2,S}
7  H u0 p0 c0 {2,S}
8  H u0 p0 c0 {2,S}
9  H u0 p0 c0 {1,S}
10 H u0 p0 c0 {5,S}


>  <multiplicity>  (5) 
2

>  <reaction>  (5) 
rxn_1898

>  <type>  (5) 
r2

>  <role_mapnums>  (5) 
{}

>  <role_mapidx>  (5) 
{}

>  <ordered_mapped_smiles>  (5) 
[C:1]([C:2]([CH2:3][CH2:4][H:9])[S:5][H:10])([H:6])([H:7])[H:8]

>  <level_of_theory>  (5) 
wb97xd/def2tzvp

>  <lot_method>  (5) 
wb97xd

>  <lot_basis>  (5) 
def2tzvp

>  <spin_multiplicity>  (5) 
2.0

>  <optical_isomers>  (5) 
1.0

>  <modes>  (5) 
IdealGasTranslation(mass=(85.0112, 'amu')),         NonlinearRotor(             inertia = ([82.4047, 167.495, 246.765

>  <frequency_value>  (5) 
unknown

>  <frequency_units>  (5) 
unknown

>  <frequency_list>  (5) 
unknown

>  <arkane_path>  (5) 
/home/calvin/Dropbox/PersonalFolders/Calvin/HAb_Converged/rxn_1898/output/Species/rxn_1898_C[C][CtC]S/arkane/output.py

>  <path_exists>  (5) 
True

>  <E0_value>  (5) 
-1453105.3612422314

>  <E0_units>  (5) 
kJ/mol

>  <thermo_class>  (5) 
NASA

>  <Cp0_value>  (5) 
33.257888

>  <Cp0_units>  (5) 
J/(mol*K)

>  <CpInf_value>  (5) 
232.805216

>  <CpInf_units>  (5) 
J/(mol*K)

>  <Tmin_value>  (5) 
10.0

>  <Tmin_units>  (5) 
K

>  <Tmax_value>  (5) 
3000.0

>  <Tmax_units>  (5) 
K

>  <polynomials>  (5) 
[{"name": "polynomial1", "class": "NASAPolynomial", "Tmin_value": 10.0, "Tmin_units": "K", "Tmax_value": 273.1683789679481, "Tmax_units": "K", "coeffs": [3.7753814811155935, 0.021657527899277617, 0.00015828869971507256, -7.276144873974002e-07, 9.437697922519883e-10, -174768209.8714672, 11.90943942573215]}, {"name": "polynomial2", "class": "NASAPolynomial", "Tmin_value": 273.1683789679481, "Tmin_units": "K", "Tmax_value": 3000.0, "Tmax_units": "K", "coeffs": [4.594318769947566, 0.03191679788121869, -2.0228805295381523e-05, 6.243366588572276e-09, -7.431112905857346e-13, -174768337.63240626, 7.5016838847910154]}]

>  <H298_value>  (5) 
-347295.5706324715

>  <H298_units>  (5) 
kcal/mol

>  <S298_value>  (5) 
84.1434158183064

>  <S298_units>  (5) 
cal/(mol*K)

>  <Cp_T_value_list>  (5) 
[24.862571181723663, 28.82439231648624, 32.25135350920243, 35.2019473835623, 39.890283084922174, 43.28645806188217, 48.21770771757209, 50.81256302732231, 52.32387398967946]

>  <Cp_T_units>  (5) 
cal/(mol*K)

>  <T_list>  (5) 
[300.0, 400.0, 500.0, 600.0, 800.0, 1000.0, 1500.0, 2000.0, 2400.0]

>  <T_units>  (5) 
K

>  <yaml_path>  (5) 
/home/calvin/Dropbox/PersonalFolders/Calvin/HAb_Converged/rxn_1898/output/Species/rxn_1898_C[C][CtC]S/rxn_1898_CCCtCS.yml

>  <frequencies_cm1>  (5) 
[28.99241202104, 167.81538725015997, 203.42757311967998, 241.77968613187997, 295.34217162787996, 453.06309045763993, 470.87605037772, 523.76557131236, 631.26822649696, 687.0968171485599, 897.5561832359199, 949.84827644772, 1016.29322640404, 1147.0200259408798, 1305.15983087516, 1398.8735795372, 1461.4936186702798, 1475.6670763707598, 2045.4963852096796, 2715.8240242068, 2997.8579782845195, 3050.7749671604397, 3117.61133528, 3430.2308419729998]

>  <ZPE_kJmol>  (5) 
183.7053917951971

>  <E_elec_kJmol>  (5) 
-1453289.0666340266

>  <E0_minus_Eelec_plus_ZPE_kJmol>  (5) 
0.0

>  <rxn>  (5) 
rxn_1898

>  <species_type>  (5) 
r0

>  <species_folder>  (5) 
rxn_1898_C[C][CtC]S

>  <frequencies_cm1_list>  (5) 
[28.99241202104, 167.81538725015997, 203.42757311967998, 241.77968613187997, 295.34217162787996, 453.06309045763993, 470.87605037772, 523.76557131236, 631.26822649696, 687.0968171485599, 897.5561832359199, 949.84827644772, 1016.29322640404, 1147.0200259408798, 1305.15983087516, 1398.8735795372, 1461.4936186702798, 1475.6670763707598, 2045.4963852096796, 2715.8240242068, 2997.8579782845195, 3050.7749671604397, 3117.61133528, 3430.2308419729998]

>  <E0_kJmol>  (5) 
-1.45311e+06

>  <H298_kJmol>  (5) 
-1.45308e+06

$$$$
