
     RDKit          3D

  6  5  0  0  0  0  0  0  0  0999 V2000
   -0.8270   -0.0609    0.8607 C   0  0  0  0  0  0  0  0  0  1  0  0
    0.3675    0.0318   -0.4450 S   0  0  0  0  0  0  0  0  0  2  0  0
   -0.6890    0.7616    1.5585 H   0  0  0  0  0  0  0  0  0  3  0  0
   -1.8230    0.0803    0.4476 H   0  0  0  0  0  0  0  0  0  4  0  0
   -0.7625   -0.9660    1.4599 H   0  0  0  0  0  0  0  0  0  5  0  0
    1.4415   -0.2958    0.2850 H   0  0  0  0  0  0  0  0  0  6  0  0
  1  5  1  0
  1  4  1  0
  1  3  1  0
  1  2  1  0
  2  6  1  0
M  END
>  <rmg_smiles>  (1) 
CS

>  <rmg_adjacency_list>  (1) 
1 S u0 p2 c0 {2,S} {6,S}
2 C u0 p0 c0 {1,S} {3,S} {4,S} {5,S}
3 H u0 p0 c0 {2,S}
4 H u0 p0 c0 {2,S}
5 H u0 p0 c0 {2,S}
6 H u0 p0 c0 {1,S}


>  <multiplicity>  (1) 
1

>  <reaction>  (1) 
rxn_1848

>  <type>  (1) 
r1h

>  <role_mapnums>  (1) 
{"r1h_a": 1, "r1h_h": 3}

>  <role_mapidx>  (1) 
{"r1h_a": 0, "r1h_h": 2}

>  <ordered_mapped_smiles>  (1) 
[C:1]([S:2][H:6])([H:3])([H:4])[H:5]

>  <mol_properties>  (1) 
{"0": {"label": "donator", "atom_type": "Cs"}, "2": {"label": "d_hydrogen", "atom_type": "H0"}}

>  <level_of_theory>  (1) 
wb97xd/def2tzvp

>  <lot_method>  (1) 
wb97xd

>  <lot_basis>  (1) 
def2tzvp

>  <spin_multiplicity>  (1) 
1.0

>  <optical_isomers>  (1) 
1.0

>  <modes>  (1) 
IdealGasTranslation(mass=(48.0034, 'amu')),         NonlinearRotor(             inertia = ([4.88218, 38.8439, 40.5133

>  <frequency_value>  (1) 
unknown

>  <frequency_units>  (1) 
unknown

>  <frequency_list>  (1) 
unknown

>  <arkane_path>  (1) 
/home/calvin/Dropbox/PersonalFolders/Calvin/HAb_Converged/rxn_1848/output/Species/rxn_1848_CS/arkane/output.py

>  <path_exists>  (1) 
True

>  <E0_value>  (1) 
-1151727.0074722518

>  <E0_units>  (1) 
kJ/mol

>  <thermo_class>  (1) 
NASA

>  <Cp0_value>  (1) 
33.257888

>  <Cp0_units>  (1) 
J/(mol*K)

>  <CpInf_value>  (1) 
133.031552

>  <CpInf_units>  (1) 
J/(mol*K)

>  <Tmin_value>  (1) 
10.0

>  <Tmin_units>  (1) 
K

>  <Tmax_value>  (1) 
3000.0

>  <Tmax_units>  (1) 
K

>  <polynomials>  (1) 
[{"name": "polynomial1", "class": "NASAPolynomial", "Tmin_value": 10.0, "Tmin_units": "K", "Tmax_value": 512.0046987811082, "Tmax_units": "K", "coeffs": [3.9928587497669135, 0.0002559754074249204, 3.857280640825913e-05, -5.9282603001709694e-08, 2.982147399711347e-11, -138520762.43019888, 6.388595841908656]}, {"name": "polynomial2", "class": "NASAPolynomial", "Tmin_value": 512.0046987811082, "Tmin_units": "K", "Tmax_value": 3000.0, "Tmax_units": "K", "coeffs": [1.9274442242810899, 0.01639190572497184, -8.700073442106705e-06, 2.2701656845537463e-09, -2.333640907578926e-13, -138520550.93016994, 14.970390653960273]}]

>  <H298_value>  (1) 
-275266.5007544268

>  <H298_units>  (1) 
kcal/mol

>  <S298_value>  (1) 
60.53254852214023

>  <S298_units>  (1) 
cal/(mol*K)

>  <Cp_T_value_list>  (1) 
[12.285164170505567, 14.379905317207566, 16.329998202821564, 18.065044527000737, 20.944482261362513, 23.163034177843237, 26.669386406809583, 28.493484761208425, 29.402518411604955]

>  <Cp_T_units>  (1) 
cal/(mol*K)

>  <T_list>  (1) 
[300.0, 400.0, 500.0, 600.0, 800.0, 1000.0, 1500.0, 2000.0, 2400.0]

>  <T_units>  (1) 
K

>  <yaml_path>  (1) 
/home/calvin/Dropbox/PersonalFolders/Calvin/HAb_Converged/rxn_1848/output/Species/rxn_1848_CS/rxn_1848_CS.yml

>  <frequencies_cm1>  (1) 
[239.23203457815995, 718.5407429288399, 797.72395065376, 969.0552343877599, 1092.82577779544, 1352.90597980512, 1462.0155095546, 1475.7082782826799, 2706.3887863771197, 3036.2032243114, 3126.3324066364, 3127.7195376710397]

>  <ZPE_kJmol>  (1) 
120.25255493508004

>  <E_elec_kJmol>  (1) 
-1151847.260027187

>  <E0_minus_Eelec_plus_ZPE_kJmol>  (1) 
0.0

>  <rxn>  (1) 
rxn_1848

>  <species_type>  (1) 
r1

>  <species_folder>  (1) 
rxn_1848_CS

>  <frequencies_cm1_list>  (1) 
[239.23203457815995, 718.5407429288399, 797.72395065376, 969.0552343877599, 1092.82577779544, 1352.90597980512, 1462.0155095546, 1475.7082782826799, 2706.3887863771197, 3036.2032243114, 3126.3324066364, 3127.7195376710397]

>  <E0_kJmol>  (1) 
-1.15173e+06

>  <H298_kJmol>  (1) 
-1.15172e+06

$$$$

     RDKit          3D

  7  6  0  0  0  0  0  0  0  0999 V2000
   -0.5583   -0.2784    0.8313 S   0  0  0  0  0  0  0  0  0  1  0  0
    0.2472   -0.1552   -0.6910 C   0  0  0  0  0  0  0  0  0  2  0  0
    1.0301    0.7392   -1.2547 C   0  0  0  0  0  0  0  0  0  3  0  0
   -0.2261    0.9273    1.3291 H   0  0  0  0  0  0  0  0  0  4  0  0
    1.4027    0.5783   -2.2613 H   0  0  0  0  0  0  0  0  0  5  0  0
    1.3281    1.6556   -0.7509 H   0  0  0  0  0  0  0  0  0  6  0  0
    0.0574   -1.0197   -1.3271 H   0  0  0  0  0  0  0  0  0  7  0  0
  1  2  1  0
  1  4  1  0
  2  7  1  0
  2  3  1  0
  3  6  1  0
  3  5  1  0
M  END
>  <rmg_smiles>  (2) 
[CH2][CH]S

>  <rmg_adjacency_list>  (2) 
1 S u0 p2 c0 {2,S} {7,S}
2 C u0 p0 c0 {1,S} {3,S} {4,S}
3 C u0 p0 c0 {2,S} {5,S} {6,S}
4 H u0 p0 c0 {2,S}
5 H u0 p0 c0 {3,S}
6 H u0 p0 c0 {3,S}
7 H u0 p0 c0 {1,S}


>  <multiplicity>  (2) 
1

>  <reaction>  (2) 
rxn_1848

>  <type>  (2) 
r2h

>  <role_mapnums>  (2) 
{"r2h_a": 2, "r2h_h": 7}

>  <role_mapidx>  (2) 
{"r2h_a": 1, "r2h_h": 6}

>  <ordered_mapped_smiles>  (2) 
[S:1]([CH:2]([CH:3]([H:5])[H:6])[H:7])[H:4]

>  <mol_properties>  (2) 
{"1": {"label": "acceptor", "atom_type": "Cs"}, "6": {"label": "a_hydrogen", "atom_type": "H0"}}

>  <level_of_theory>  (2) 
wb97xd/def2tzvp

>  <lot_method>  (2) 
wb97xd

>  <lot_basis>  (2) 
def2tzvp

>  <spin_multiplicity>  (2) 
1.0

>  <optical_isomers>  (2) 
1.0

>  <modes>  (2) 
IdealGasTranslation(mass=(60.0034, 'amu')),         NonlinearRotor(             inertia = ([9.90944, 86.3382, 96.2476

>  <frequency_value>  (2) 
unknown

>  <frequency_units>  (2) 
unknown

>  <frequency_list>  (2) 
unknown

>  <arkane_path>  (2) 
/home/calvin/Dropbox/PersonalFolders/Calvin/HAb_Converged/rxn_1848/output/Species/rxn_1848_SC=C/arkane/output.py

>  <path_exists>  (2) 
True

>  <E0_value>  (2) 
-1251689.3549759986

>  <E0_units>  (2) 
kJ/mol

>  <thermo_class>  (2) 
NASA

>  <Cp0_value>  (2) 
33.257888

>  <Cp0_units>  (2) 
J/(mol*K)

>  <CpInf_value>  (2) 
157.97496800000002

>  <CpInf_units>  (2) 
J/(mol*K)

>  <Tmin_value>  (2) 
10.0

>  <Tmin_units>  (2) 
K

>  <Tmax_value>  (2) 
3000.0

>  <Tmax_units>  (2) 
K

>  <polynomials>  (2) 
[{"name": "polynomial1", "class": "NASAPolynomial", "Tmin_value": 10.0, "Tmin_units": "K", "Tmax_value": 518.0985896565595, "Tmax_units": "K", "coeffs": [3.9710890410179527, 0.00174544323280687, 6.258867582057616e-05, -1.147916448303025e-07, 6.675564550424213e-11, -150543455.37737432, 7.602044020318584]}, {"name": "polynomial2", "class": "NASAPolynomial", "Tmin_value": 518.0985896565595, "Tmin_units": "K", "Tmax_value": 3000.0, "Tmax_units": "K", "coeffs": [1.9417786050902055, 0.022851730763524505, -1.4265054337101277e-05, 4.362636182653495e-09, -5.175227016234303e-13, -150543318.09819806, 15.35336611104291]}]

>  <H298_value>  (2) 
-299157.71779716644

>  <H298_units>  (2) 
kcal/mol

>  <S298_value>  (2) 
64.87022099321973

>  <S298_units>  (2) 
cal/(mol*K)

>  <Cp_T_value_list>  (2) 
[15.041263682654963, 17.97574085668998, 20.496548334367453, 22.639560017015704, 26.062652168572477, 28.563248790063227, 32.246282509479684, 34.19137630434904, 35.28909296082372]

>  <Cp_T_units>  (2) 
cal/(mol*K)

>  <T_list>  (2) 
[300.0, 400.0, 500.0, 600.0, 800.0, 1000.0, 1500.0, 2000.0, 2400.0]

>  <T_units>  (2) 
K

>  <yaml_path>  (2) 
/home/calvin/Dropbox/PersonalFolders/Calvin/HAb_Converged/rxn_1848/output/Species/rxn_1848_SC=C/rxn_1848_SC=C.yml

>  <frequencies_cm1>  (2) 
[269.96179388516, 384.87392623004, 606.526478389, 704.2505464779199, 903.87380973032, 907.73305548016, 996.6055794915999, 1086.28154078548, 1302.50917454164, 1424.26082426524, 1666.2121850301198, 2696.665135164, 3125.4671664860793, 3152.8458369569203, 3215.7680234440795]

>  <ZPE_kJmol>  (2) 
134.24398405727098

>  <E_elec_kJmol>  (2) 
-1251823.598960056

>  <E0_minus_Eelec_plus_ZPE_kJmol>  (2) 
0.0

>  <rxn>  (2) 
rxn_1848

>  <species_type>  (2) 
p0

>  <species_folder>  (2) 
rxn_1848_SC=C

>  <frequencies_cm1_list>  (2) 
[269.96179388516, 384.87392623004, 606.526478389, 704.2505464779199, 903.87380973032, 907.73305548016, 996.6055794915999, 1086.28154078548, 1302.50917454164, 1424.26082426524, 1666.2121850301198, 2696.665135164, 3125.4671664860793, 3152.8458369569203, 3215.7680234440795]

>  <E0_kJmol>  (2) 
-1.25169e+06

>  <H298_kJmol>  (2) 
-1.25168e+06

$$$$

     RDKit          3D

 12 10  0  0  0  0  0  0  0  0999 V2000
   -0.4178    0.5647    2.5553 S   0  0  0  0  0  0  0  0  0  1  0  0
    0.3878    0.6879    1.0331 C   0  0  0  0  0  3  0  0  0  2  0  0
    1.1707    1.5823    0.4693 C   0  0  0  0  0  0  0  0  0  3  0  0
   -0.0855    1.7704    3.0532 H   0  0  0  0  0  0  0  0  0  4  0  0
    1.5433    1.4214   -0.5372 H   0  0  0  0  0  0  0  0  0  5  0  0
    1.4687    2.4987    0.9731 H   0  0  0  0  0  0  0  0  0  6  0  0
   -0.0207   -1.3987   -0.6102 C   0  0  0  0  0  0  0  0  0  7  0  0
    1.1738   -1.3060   -1.9159 S   0  0  0  0  0  0  0  0  0  8  0  0
    0.1403   -0.4393    0.2037 H   0  0  0  0  0  0  0  0  0  9  0  0
   -1.0166   -1.2575   -1.0234 H   0  0  0  0  0  0  0  0  0 10  0  0
    0.0438   -2.3038   -0.0111 H   0  0  0  0  0  0  0  0  0 11  0  0
    2.2479   -1.6336   -1.1860 H   0  0  0  0  0  0  0  0  0 12  0  0
  1  2  1  0
  1  4  1  0
  2  3  1  0
  3  6  1  0
  3  5  1  0
  7  8  1  0
  7 11  1  0
  7 10  1  0
  7  9  1  0
  8 12  1  0
M  RAD  1   2   2
M  END
>  <rmg_smiles>  (3) 
[CH2][C]S.CS

>  <rmg_adjacency_list>  (3) 
multiplicity 2
1  S u0 p2 c0 {3,S} {11,S}
2  S u0 p2 c0 {5,S} {12,S}
3  C u0 p0 c0 {1,S} {6,S} {7,S} {8,S}
4  C u0 p0 c0 {5,S} {9,S} {10,S}
5  C u1 p1 c0 {2,S} {4,S}
6  H u0 p0 c0 {3,S}
7  H u0 p0 c0 {3,S}
8  H u0 p0 c0 {3,S}
9  H u0 p0 c0 {4,S}
10 H u0 p0 c0 {4,S}
11 H u0 p0 c0 {1,S}
12 H u0 p0 c0 {2,S}


>  <multiplicity>  (3) 
2

>  <reaction>  (3) 
rxn_1848

>  <type>  (3) 
ts

>  <role_mapnums>  (3) 
{"*2": 9, "*1": 7, "*3": 2, "*0": 8, "*4": 1}

>  <role_mapidx>  (3) 
{"*2": 8, "*1": 6, "*3": 1, "*0": 7, "*4": 0}

>  <ordered_mapped_smiles>  (3) 
[S:1]([CH:2][CH:3]([H:5])[H:6])[H:4].[C:7]([S:8][H:12])([H:9])([H:10])[H:11]

>  <mol_properties>  (3) 
{"0": {"label": "*4", "atom_type": "S2s"}, "1": {"label": "*3", "atom_type": "C2s"}, "6": {"label": "*1", "atom_type": "Cs"}, "7": {"label": "*0", "atom_type": "S2s"}, "8": {"label": "*2", "atom_type": "H0"}}

>  <level_of_theory>  (3) 
wb97xd/def2tzvp

>  <lot_method>  (3) 
wb97xd

>  <lot_basis>  (3) 
def2tzvp

>  <spin_multiplicity>  (3) 
2.0

>  <optical_isomers>  (3) 
2.0

>  <modes>  (3) 
IdealGasTranslation(mass=(106.999, 'amu')),         NonlinearRotor(             inertia = ([79.5829, 476.068, 546.031

>  <frequency_value>  (3) 
-1538.69

>  <frequency_units>  (3) 
cm^-1

>  <frequency_list>  (3) 
unknown

>  <arkane_path>  (3) 
/home/calvin/Dropbox/PersonalFolders/Calvin/HAb_Converged/rxn_1848/output/rxns/TS0/arkane/output.py

>  <path_exists>  (3) 
True

>  <E0_value>  (3) 
-2401640.0

>  <E0_units>  (3) 
kJ/mol

>  <thermo_class>  (3) 
unknown

>  <Cp0_value>  (3) 
unknown

>  <Cp0_units>  (3) 
unknown

>  <CpInf_value>  (3) 
unknown

>  <CpInf_units>  (3) 
unknown

>  <Tmin_value>  (3) 
unknown

>  <Tmin_units>  (3) 
unknown

>  <Tmax_value>  (3) 
unknown

>  <Tmax_units>  (3) 
unknown

>  <polynomials>  (3) 
unknown

>  <H298_value>  (3) 
unknown

>  <H298_units>  (3) 
unknown

>  <S298_value>  (3) 
unknown

>  <S298_units>  (3) 
unknown

>  <Cp_T_value_list>  (3) 
unknown

>  <Cp_T_units>  (3) 
unknown

>  <T_list>  (3) 
unknown

>  <T_units>  (3) 
unknown

>  <yaml_path>  (3) 
unknown

>  <frequencies_cm1>  (3) 
unknown

>  <ZPE_kJmol>  (3) 
unknown

>  <E_elec_kJmol>  (3) 
unknown

>  <E0_minus_Eelec_plus_ZPE_kJmol>  (3) 
unknown

>  <rxn>  (3) 
unknown

>  <species_type>  (3) 
unknown

>  <species_folder>  (3) 
unknown

>  <frequencies_cm1_list>  (3) 
[]

>  <ts_imag_freq_cm1>  (3) 
-1557.3793

>  <ts_freq_out_path>  (3) 
/home/calvin/Dropbox/PersonalFolders/Calvin/HAb_Converged/rxn_1848/output/rxns/TS0/geometry/freq.out

>  <E0_kJmol>  (3) 
-2.40164e+06

>  <H298_kJmol>  (3) 
unknown

$$$$

     RDKit          3D

  5  4  0  0  0  0  0  0  0  0999 V2000
   -0.5642    0.0794    0.0348 C   0  0  0  0  0  3  0  0  0  1  0  0
    1.0624    0.5420    0.2853 S   0  0  0  0  0  0  0  0  0  2  0  0
   -1.3257    0.7631    0.3741 H   0  0  0  0  0  0  0  0  0  3  0  0
   -0.8236   -0.8519   -0.4401 H   0  0  0  0  0  0  0  0  0  4  0  0
    1.6511   -0.5325   -0.2540 H   0  0  0  0  0  0  0  0  0  5  0  0
  1  3  1  0
  1  2  1  0
  1  4  1  0
  2  5  1  0
M  RAD  1   1   2
M  END
>  <rmg_smiles>  (4) 
[CH2]S

>  <rmg_adjacency_list>  (4) 
multiplicity 2
1 S u0 p2 c0 {2,S} {5,S}
2 C u1 p0 c0 {1,S} {3,S} {4,S}
3 H u0 p0 c0 {2,S}
4 H u0 p0 c0 {2,S}
5 H u0 p0 c0 {1,S}


>  <multiplicity>  (4) 
2

>  <reaction>  (4) 
rxn_1848

>  <type>  (4) 
r1

>  <role_mapnums>  (4) 
{}

>  <role_mapidx>  (4) 
{}

>  <ordered_mapped_smiles>  (4) 
[C:1]([S:2][H:5])([H:3])[H:4]

>  <level_of_theory>  (4) 
wb97xd/def2tzvp

>  <lot_method>  (4) 
wb97xd

>  <lot_basis>  (4) 
def2tzvp

>  <spin_multiplicity>  (4) 
2.0

>  <optical_isomers>  (4) 
1.0

>  <modes>  (4) 
IdealGasTranslation(mass=(46.9956, 'amu')),         NonlinearRotor(             inertia = ([3.47508, 32.1188, 35.5939

>  <frequency_value>  (4) 
unknown

>  <frequency_units>  (4) 
unknown

>  <frequency_list>  (4) 
unknown

>  <arkane_path>  (4) 
/home/calvin/Dropbox/PersonalFolders/Calvin/HAb_Converged/rxn_1848/output/Species/rxn_1848_[CH2]S/arkane/output.py

>  <path_exists>  (4) 
True

>  <E0_value>  (4) 
-1150024.3332710424

>  <E0_units>  (4) 
kJ/mol

>  <thermo_class>  (4) 
NASA

>  <Cp0_value>  (4) 
33.257888

>  <Cp0_units>  (4) 
J/(mol*K)

>  <CpInf_value>  (4) 
108.088136

>  <CpInf_units>  (4) 
J/(mol*K)

>  <Tmin_value>  (4) 
10.0

>  <Tmin_units>  (4) 
K

>  <Tmax_value>  (4) 
3000.0

>  <Tmax_units>  (4) 
K

>  <polynomials>  (4) 
[{"name": "polynomial1", "class": "NASAPolynomial", "Tmin_value": 10.0, "Tmin_units": "K", "Tmax_value": 228.7632631011955, "Tmax_units": "K", "coeffs": [3.952412159768893, 0.004869189743453995, 7.700507410130638e-05, -3.7784535832034173e-07, 5.662383077803353e-10, -138315979.8249789, 6.828268654504248]}, {"name": "polynomial2", "class": "NASAPolynomial", "Tmin_value": 228.7632631011955, "Tmin_units": "K", "Tmax_value": 3000.0, "Tmax_units": "K", "coeffs": [4.0647189913044315, 0.010177206447780005, -5.480339108667681e-06, 1.4876276440090965e-09, -1.6083284592339647e-13, -138316003.99077362, 6.036236642771031]}]

>  <H298_value>  (4) 
-274859.2476351292

>  <H298_units>  (4) 
kcal/mol

>  <S298_value>  (4) 
63.58185598753384

>  <S298_units>  (4) 
cal/(mol*K)

>  <Cp_T_value_list>  (4) 
[13.241777557438835, 14.605646175289959, 15.816452446168032, 16.888481942792666, 18.669517607236212, 20.047696562682138, 22.269217674285446, 23.499652986162165, 24.148886967222168]

>  <Cp_T_units>  (4) 
cal/(mol*K)

>  <T_list>  (4) 
[300.0, 400.0, 500.0, 600.0, 800.0, 1000.0, 1500.0, 2000.0, 2400.0]

>  <T_units>  (4) 
K

>  <yaml_path>  (4) 
/home/calvin/Dropbox/PersonalFolders/Calvin/HAb_Converged/rxn_1848/output/Species/rxn_1848_[CH2]S/rxn_1848_CH2S.yml

>  <frequencies_cm1>  (4) 
[112.26147601135997, 339.84023650148, 784.39513214764, 853.62121115856, 1068.3930440268798, 1401.38689616432, 2708.6686255033596, 3159.5548816145597, 3285.6189981191196]

>  <ZPE_kJmol>  (4) 
82.02640747232539

>  <E_elec_kJmol>  (4) 
-1150106.3596785148

>  <E0_minus_Eelec_plus_ZPE_kJmol>  (4) 
0.0

>  <rxn>  (4) 
rxn_1848

>  <species_type>  (4) 
p1

>  <species_folder>  (4) 
rxn_1848_[CH2]S

>  <frequencies_cm1_list>  (4) 
[112.26147601135997, 339.84023650148, 784.39513214764, 853.62121115856, 1068.3930440268798, 1401.38689616432, 2708.6686255033596, 3159.5548816145597, 3285.6189981191196]

>  <E0_kJmol>  (4) 
-1.15002e+06

>  <H298_kJmol>  (4) 
-1.15001e+06

$$$$

     RDKit          3D

  6  5  0  0  0  0  0  0  0  0999 V2000
    1.7035    0.4954    0.0162 S   0  0  0  0  0  0  0  0  0  1  0  0
    0.1927   -0.1841   -0.3584 C   0  0  0  0  0  3  0  0  0  2  0  0
   -1.0558    0.0577   -0.0460 C   0  0  0  0  0  0  0  0  0  3  0  0
    2.3611   -0.6557    0.2254 H   0  0  0  0  0  0  0  0  0  4  0  0
   -1.8677   -0.4245   -0.5802 H   0  0  0  0  0  0  0  0  0  5  0  0
   -1.3294    0.7333    0.7635 H   0  0  0  0  0  0  0  0  0  6  0  0
  1  2  1  0
  1  4  1  0
  2  3  1  0
  3  6  1  0
  3  5  1  0
M  RAD  1   2   2
M  END
>  <rmg_smiles>  (5) 
[CH2][C]S

>  <rmg_adjacency_list>  (5) 
multiplicity 2
1 S u0 p2 c0 {3,S} {6,S}
2 C u0 p0 c0 {3,S} {4,S} {5,S}
3 C u1 p1 c0 {1,S} {2,S}
4 H u0 p0 c0 {2,S}
5 H u0 p0 c0 {2,S}
6 H u0 p0 c0 {1,S}


>  <multiplicity>  (5) 
2

>  <reaction>  (5) 
rxn_1848

>  <type>  (5) 
r2

>  <role_mapnums>  (5) 
{}

>  <role_mapidx>  (5) 
{}

>  <ordered_mapped_smiles>  (5) 
[S:1]([CH:2][CH:3]([H:5])[H:6])[H:4]

>  <level_of_theory>  (5) 
wb97xd/def2tzvp

>  <lot_method>  (5) 
wb97xd

>  <lot_basis>  (5) 
def2tzvp

>  <spin_multiplicity>  (5) 
2.0

>  <optical_isomers>  (5) 
2.0

>  <modes>  (5) 
IdealGasTranslation(mass=(58.9956, 'amu')),         NonlinearRotor(             inertia = ([5.86277, 89.2142, 93.3691

>  <frequency_value>  (5) 
unknown

>  <frequency_units>  (5) 
unknown

>  <frequency_list>  (5) 
unknown

>  <arkane_path>  (5) 
/home/calvin/Dropbox/PersonalFolders/Calvin/HAb_Converged/rxn_1848/output/Species/rxn_1848_S[C]=C/arkane/output.py

>  <path_exists>  (5) 
True

>  <E0_value>  (5) 
-1249945.7399661627

>  <E0_units>  (5) 
kJ/mol

>  <thermo_class>  (5) 
NASA

>  <Cp0_value>  (5) 
33.257888

>  <Cp0_units>  (5) 
J/(mol*K)

>  <CpInf_value>  (5) 
133.031552

>  <CpInf_units>  (5) 
J/(mol*K)

>  <Tmin_value>  (5) 
10.0

>  <Tmin_units>  (5) 
K

>  <Tmax_value>  (5) 
3000.0

>  <Tmax_units>  (5) 
K

>  <polynomials>  (5) 
[{"name": "polynomial1", "class": "NASAPolynomial", "Tmin_value": 10.0, "Tmin_units": "K", "Tmax_value": 500.3914625545621, "Tmax_units": "K", "coeffs": [3.9544650685049887, 0.0028846781197034324, 5.950897819991564e-05, -1.2753281725110462e-07, 8.369166023665105e-11, -150333746.6952712, 8.836073771623717]}, {"name": "polynomial2", "class": "NASAPolynomial", "Tmin_value": 500.3914625545621, "Tmin_units": "K", "Tmax_value": 3000.0, "Tmax_units": "K", "coeffs": [3.392909366574306, 0.01678384937195946, -1.0364550218080234e-05, 3.141092957259568e-09, -3.7052525921064655e-13, -150333808.307997, 9.97925320036932]}]

>  <H298_value>  (5) 
-298740.9807490372

>  <H298_units>  (5) 
kcal/mol

>  <S298_value>  (5) 
67.38019452004627

>  <S298_units>  (5) 
cal/(mol*K)

>  <Cp_T_value_list>  (5) 
[14.725583552995092, 17.110203735578658, 19.004004099588183, 20.592302006047493, 23.137341727222037, 25.00457470148292, 27.76892564253498, 29.21739392128137, 30.01410883619956]

>  <Cp_T_units>  (5) 
cal/(mol*K)

>  <T_list>  (5) 
[300.0, 400.0, 500.0, 600.0, 800.0, 1000.0, 1500.0, 2000.0, 2400.0]

>  <T_units>  (5) 
K

>  <yaml_path>  (5) 
/home/calvin/Dropbox/PersonalFolders/Calvin/HAb_Converged/rxn_1848/output/Species/rxn_1848_S[C]=C/rxn_1848_SC=C.yml

>  <frequencies_cm1>  (5) 
[267.83302843596, 308.40317770651995, 554.8455468706799, 716.0205593164001, 907.1287607719999, 954.35988580296, 1012.9078026412799, 1396.3671298954, 1687.9187256266398, 2665.5714256350398, 3064.4952038297997, 3160.31024999976]

>  <ZPE_kJmol>  (5) 
99.86525164405435

>  <E_elec_kJmol>  (5) 
-1250045.6052178068

>  <E0_minus_Eelec_plus_ZPE_kJmol>  (5) 
0.0

>  <rxn>  (5) 
rxn_1848

>  <species_type>  (5) 
r0

>  <species_folder>  (5) 
rxn_1848_S[C]=C

>  <frequencies_cm1_list>  (5) 
[267.83302843596, 308.40317770651995, 554.8455468706799, 716.0205593164001, 907.1287607719999, 954.35988580296, 1012.9078026412799, 1396.3671298954, 1687.9187256266398, 2665.5714256350398, 3064.4952038297997, 3160.31024999976]

>  <E0_kJmol>  (5) 
-1.24995e+06

>  <H298_kJmol>  (5) 
-1.24993e+06

$$$$
