
     RDKit          3D

 25 26  0  0  0  0  0  0  0  0999 V2000
   -1.3360   -1.8573   -0.5440 C   0  0  0  0  0  0  0  0  0  1  0  0
   -1.0759   -1.8526    0.9647 C   0  0  0  0  0  0  0  0  0  2  0  0
    0.2380   -1.1544    1.3285 C   0  0  0  0  0  0  0  0  0  3  0  0
    0.2577    0.2385    0.7260 C   0  0  0  0  0  0  0  0  0  4  0  0
    1.5118    1.0946    0.8732 C   0  0  0  0  0  0  0  0  0  5  0  0
    1.3415    2.1579   -0.2082 C   0  0  0  0  0  0  0  0  0  6  0  0
    0.3119    1.6421   -1.2166 C   0  0  0  0  0  0  0  0  0  7  0  0
    0.0577    0.1953   -0.7887 C   0  0  0  0  0  0  0  0  0  8  0  0
   -1.2652   -0.4543   -1.1540 C   0  0  0  0  0  0  0  0  0  9  0  0
   -0.5868   -2.4905   -1.0322 H   0  0  0  0  0  0  0  0  0 10  0  0
   -2.3082   -2.3107   -0.7505 H   0  0  0  0  0  0  0  0  0 11  0  0
   -1.8999   -1.3328    1.4662 H   0  0  0  0  0  0  0  0  0 12  0  0
   -1.0778   -2.8771    1.3438 H   0  0  0  0  0  0  0  0  0 13  0  0
    0.3573   -1.1158    2.4145 H   0  0  0  0  0  0  0  0  0 14  0  0
    1.0845   -1.7298    0.9355 H   0  0  0  0  0  0  0  0  0 15  0  0
   -0.5864    0.8021    1.1472 H   0  0  0  0  0  0  0  0  0 16  0  0
    1.6260    1.5236    1.8723 H   0  0  0  0  0  0  0  0  0 17  0  0
    2.4023    0.4838    0.6837 H   0  0  0  0  0  0  0  0  0 18  0  0
    0.9030    3.0280    0.2761 H   0  0  0  0  0  0  0  0  0 19  0  0
    2.2638    2.5550   -0.6273 H   0  0  0  0  0  0  0  0  0 20  0  0
    0.6526    1.7237   -2.2500 H   0  0  0  0  0  0  0  0  0 21  0  0
   -0.6194    2.2178   -1.1453 H   0  0  0  0  0  0  0  0  0 22  0  0
    0.8654   -0.4265   -1.2001 H   0  0  0  0  0  0  0  0  0 23  0  0
   -1.3932   -0.5065   -2.2384 H   0  0  0  0  0  0  0  0  0 24  0  0
   -2.0861    0.1607   -0.7660 H   0  0  0  0  0  0  0  0  0 25  0  0
  1 11  1  0
  1 10  1  0
  1  9  1  0
  1  2  1  0
  2 12  1  0
  2 13  1  0
  2  3  1  0
  3 15  1  0
  3  4  1  0
  3 14  1  0
  4  5  1  0
  4  8  1  0
  4 16  1  0
  5 18  1  0
  5 17  1  0
  5  6  1  0
  6  7  1  0
  6 19  1  0
  6 20  1  0
  7 21  1  0
  7  8  1  0
  7 22  1  0
  8 23  1  0
  8  9  1  0
  9 24  1  0
  9 25  1  0
M  END
>  <rmg_smiles>  (1) 
C1CCC2CCCC2C1

>  <rmg_adjacency_list>  (1) 
1  C u0 p0 c0 {2,S} {3,S} {4,S} {10,S}
2  C u0 p0 c0 {1,S} {5,S} {6,S} {11,S}
3  C u0 p0 c0 {1,S} {8,S} {16,S} {17,S}
4  C u0 p0 c0 {1,S} {9,S} {18,S} {19,S}
5  C u0 p0 c0 {2,S} {9,S} {22,S} {23,S}
6  C u0 p0 c0 {2,S} {7,S} {24,S} {25,S}
7  C u0 p0 c0 {6,S} {8,S} {12,S} {13,S}
8  C u0 p0 c0 {3,S} {7,S} {14,S} {15,S}
9  C u0 p0 c0 {4,S} {5,S} {20,S} {21,S}
10 H u0 p0 c0 {1,S}
11 H u0 p0 c0 {2,S}
12 H u0 p0 c0 {7,S}
13 H u0 p0 c0 {7,S}
14 H u0 p0 c0 {8,S}
15 H u0 p0 c0 {8,S}
16 H u0 p0 c0 {3,S}
17 H u0 p0 c0 {3,S}
18 H u0 p0 c0 {4,S}
19 H u0 p0 c0 {4,S}
20 H u0 p0 c0 {9,S}
21 H u0 p0 c0 {9,S}
22 H u0 p0 c0 {5,S}
23 H u0 p0 c0 {5,S}
24 H u0 p0 c0 {6,S}
25 H u0 p0 c0 {6,S}


>  <multiplicity>  (1) 
1

>  <reaction>  (1) 
rxn_600

>  <type>  (1) 
r1h

>  <role_mapnums>  (1) 
{"r1h_a": 6, "r1h_h": 19}

>  <role_mapidx>  (1) 
{"r1h_a": 5, "r1h_h": 18}

>  <ordered_mapped_smiles>  (1) 
[C:1]1([H:10])([H:11])[C:2]([H:12])([H:13])[C:3]([H:14])([H:15])[C:4]2([H:16])[C:5]([H:17])([H:18])[C:6]([H:19])([H:20])[C:7]([H:21])([H:22])[C:8]2([H:23])[C:9]1([H:24])[H:25]

>  <mol_properties>  (1) 
{"5": {"label": "donator", "atom_type": "Cs"}, "18": {"label": "d_hydrogen", "atom_type": "H0"}}

>  <level_of_theory>  (1) 
wb97xd/def2tzvp

>  <lot_method>  (1) 
wb97xd

>  <lot_basis>  (1) 
def2tzvp

>  <spin_multiplicity>  (1) 
1.0

>  <optical_isomers>  (1) 
2.0

>  <modes>  (1) 
IdealGasTranslation(mass=(124.125, 'amu')),         NonlinearRotor(             inertia = ([170.024, 375.242, 505.424

>  <frequency_value>  (1) 
unknown

>  <frequency_units>  (1) 
unknown

>  <frequency_list>  (1) 
unknown

>  <arkane_path>  (1) 
/home/calvin/Dropbox/PersonalFolders/Calvin/HAb_Converged/rxn_600/output/Species/rxn_600_C1CCC2CCCC2C1/arkane/output.py

>  <path_exists>  (1) 
True

>  <E0_value>  (1) 
-925233.0049241188

>  <E0_units>  (1) 
kJ/mol

>  <thermo_class>  (1) 
NASA

>  <Cp0_value>  (1) 
33.257888

>  <Cp0_units>  (1) 
J/(mol*K)

>  <CpInf_value>  (1) 
606.956456

>  <CpInf_units>  (1) 
J/(mol*K)

>  <Tmin_value>  (1) 
10.0

>  <Tmin_units>  (1) 
K

>  <Tmax_value>  (1) 
3000.0

>  <Tmax_units>  (1) 
K

>  <polynomials>  (1) 
[{"name": "polynomial1", "class": "NASAPolynomial", "Tmin_value": 10.0, "Tmin_units": "K", "Tmax_value": 492.86414085374884, "Tmax_units": "K", "coeffs": [4.007994789865864, -0.0014434969438387518, 0.0002774235318770471, -4.47143959124011e-07, 2.345687014006794e-10, -111279824.80461533, 12.742603075803766]}, {"name": "polynomial2", "class": "NASAPolynomial", "Tmin_value": 492.86414085374884, "Tmin_units": "K", "Tmax_value": 3000.0, "Tmax_units": "K", "coeffs": [-9.95853370242537, 0.11191389639895702, -6.759505783925652e-05, 1.9571966588871765e-08, -2.183492026273649e-12, -111278448.17509678, 70.24048730977755]}]

>  <H298_value>  (1) 
-221130.41480672767

>  <H298_units>  (1) 
kcal/mol

>  <S298_value>  (1) 
87.40258332007863

>  <S298_units>  (1) 
cal/(mol*K)

>  <Cp_T_value_list>  (1) 
[36.50534740058796, 50.089738669944325, 62.417515537946755, 73.12949241055418, 90.29515590280347, 102.83551087971135, 120.87161605712708, 129.42454969138163, 133.951878152645]

>  <Cp_T_units>  (1) 
cal/(mol*K)

>  <T_list>  (1) 
[300.0, 400.0, 500.0, 600.0, 800.0, 1000.0, 1500.0, 2000.0, 2400.0]

>  <T_units>  (1) 
K

>  <yaml_path>  (1) 
/home/calvin/Dropbox/PersonalFolders/Calvin/HAb_Converged/rxn_600/output/Species/rxn_600_C1CCC2CCCC2C1/rxn_600_C1CCC2CCCC2C1.yml

>  <frequencies_cm1>  (1) 
[79.74630052116, 161.44969185852, 192.46099756363998, 319.95344701476, 325.08995203411996, 337.32691987436, 425.16252910247994, 470.50523317043996, 497.06673238819997, 579.3538174777599, 623.59780389452, 769.3495673115199, 782.1839628746, 837.42199278868, 848.74565158136, 873.0204446875598, 907.5545138618398, 921.7142375916799, 922.5451428153999, 945.43967187228, 987.1978096031999, 1015.3867843418, 1044.03584709684, 1066.28487953364, 1072.4857672776, 1096.98030391404, 1116.2696656779199, 1122.75209982, 1142.3985448205199, 1202.0657802659998, 1207.82031396416, 1217.5508321625998, 1256.61711164808, 1262.63945777372, 1284.5314069738797, 1286.2687542598399, 1313.97704002604, 1316.9847795961998, 1320.6311488011202, 1339.9411115209598, 1339.9754464475598, 1365.2322184545199, 1368.74811493836, 1376.8580246012798, 1398.55083122716, 1401.5036349147601, 1472.50826312356, 1476.82072990452, 1478.06365424744, 1478.81215564732, 1486.92206531024, 1491.0628574582, 1506.3831017071197, 2950.4551786205598, 2962.34193020948, 2991.31374127456, 2991.7532283350397, 2996.8759993837602, 3001.07172741428, 3015.06664349644, 3015.65720423396, 3043.90798184044, 3044.3474689009204, 3044.821290888, 3053.3088847435192, 3057.07199269888, 3062.7784574998, 3072.117557535, 3090.8781614292393]

>  <ZPE_kJmol>  (1) 
613.2521071062491

>  <E_elec_kJmol>  (1) 
-925846.257031225

>  <E0_minus_Eelec_plus_ZPE_kJmol>  (1) 
0.0

>  <rxn>  (1) 
rxn_600

>  <species_type>  (1) 
r1

>  <species_folder>  (1) 
rxn_600_C1CCC2CCCC2C1

>  <frequencies_cm1_list>  (1) 
[79.74630052116, 161.44969185852, 192.46099756363998, 319.95344701476, 325.08995203411996, 337.32691987436, 425.16252910247994, 470.50523317043996, 497.06673238819997, 579.3538174777599, 623.59780389452, 769.3495673115199, 782.1839628746, 837.42199278868, 848.74565158136, 873.0204446875598, 907.5545138618398, 921.7142375916799, 922.5451428153999, 945.43967187228, 987.1978096031999, 1015.3867843418, 1044.03584709684, 1066.28487953364, 1072.4857672776, 1096.98030391404, 1116.2696656779199, 1122.75209982, 1142.3985448205199, 1202.0657802659998, 1207.82031396416, 1217.5508321625998, 1256.61711164808, 1262.63945777372, 1284.5314069738797, 1286.2687542598399, 1313.97704002604, 1316.9847795961998, 1320.6311488011202, 1339.9411115209598, 1339.9754464475598, 1365.2322184545199, 1368.74811493836, 1376.8580246012798, 1398.55083122716, 1401.5036349147601, 1472.50826312356, 1476.82072990452, 1478.06365424744, 1478.81215564732, 1486.92206531024, 1491.0628574582, 1506.3831017071197, 2950.4551786205598, 2962.34193020948, 2991.31374127456, 2991.7532283350397, 2996.8759993837602, 3001.07172741428, 3015.06664349644, 3015.65720423396, 3043.90798184044, 3044.3474689009204, 3044.821290888, 3053.3088847435192, 3057.07199269888, 3062.7784574998, 3072.117557535, 3090.8781614292393]

>  <E0_kJmol>  (1) 
-925233

>  <H298_kJmol>  (1) 
-925210

$$$$

     RDKit          3D

  8  7  0  0  0  0  0  0  0  0999 V2000
   -0.5838   -0.2923    0.3825 C   0  0  0  0  0  0  0  0  0  1  0  0
    0.5687    0.3199   -0.3665 C   0  0  0  0  0  0  0  0  0  2  0  0
   -1.1705    0.4636    0.9153 H   0  0  0  0  0  0  0  0  0  3  0  0
   -0.2363   -1.0152    1.1235 H   0  0  0  0  0  0  0  0  0  4  0  0
   -1.2650   -0.8132   -0.2943 H   0  0  0  0  0  0  0  0  0  5  0  0
    1.3446    0.7572    0.2590 H   0  0  0  0  0  0  0  0  0  6  0  0
    0.2874    0.9824   -1.1830 H   0  0  0  0  0  0  0  0  0  7  0  0
    1.0846   -0.4911   -0.8771 H   0  0  0  0  0  0  0  0  0  8  0  0
  1  5  1  0
  1  4  1  0
  1  3  1  0
  1  2  1  0
  2  7  1  0
  2  8  1  0
  2  6  1  0
M  END
>  <rmg_smiles>  (2) 
CC

>  <rmg_adjacency_list>  (2) 
1 C u0 p0 c0 {2,S} {3,S} {4,S} {5,S}
2 C u0 p0 c0 {1,S} {6,S} {7,S} {8,S}
3 H u0 p0 c0 {1,S}
4 H u0 p0 c0 {1,S}
5 H u0 p0 c0 {1,S}
6 H u0 p0 c0 {2,S}
7 H u0 p0 c0 {2,S}
8 H u0 p0 c0 {2,S}


>  <multiplicity>  (2) 
1

>  <reaction>  (2) 
rxn_600

>  <type>  (2) 
r2h

>  <role_mapnums>  (2) 
{"r2h_a": 2, "r2h_h": 8}

>  <role_mapidx>  (2) 
{"r2h_a": 1, "r2h_h": 7}

>  <ordered_mapped_smiles>  (2) 
[C:1]([C:2]([H:6])([H:7])[H:8])([H:3])([H:4])[H:5]

>  <mol_properties>  (2) 
{"1": {"label": "acceptor", "atom_type": "Cs"}, "7": {"label": "a_hydrogen", "atom_type": "H0"}}

>  <level_of_theory>  (2) 
wb97xd/def2tzvp

>  <lot_method>  (2) 
wb97xd

>  <lot_basis>  (2) 
def2tzvp

>  <spin_multiplicity>  (2) 
1.0

>  <optical_isomers>  (2) 
1.0

>  <modes>  (2) 
IdealGasTranslation(mass=(30.0469, 'amu')),         NonlinearRotor(             inertia = ([6.25566, 25.1393, 25.1393

>  <frequency_value>  (2) 
unknown

>  <frequency_units>  (2) 
unknown

>  <frequency_list>  (2) 
unknown

>  <arkane_path>  (2) 
/home/calvin/Dropbox/PersonalFolders/Calvin/HAb_Converged/rxn_600/output/Species/rxn_600_CC/arkane/output.py

>  <path_exists>  (2) 
True

>  <E0_value>  (2) 
-209409.0952137841

>  <E0_units>  (2) 
kJ/mol

>  <thermo_class>  (2) 
NASA

>  <Cp0_value>  (2) 
33.257888

>  <Cp0_units>  (2) 
J/(mol*K)

>  <CpInf_value>  (2) 
182.918384

>  <CpInf_units>  (2) 
J/(mol*K)

>  <Tmin_value>  (2) 
10.0

>  <Tmin_units>  (2) 
K

>  <Tmax_value>  (2) 
3000.0

>  <Tmax_units>  (2) 
K

>  <polynomials>  (2) 
[{"name": "polynomial1", "class": "NASAPolynomial", "Tmin_value": 10.0, "Tmin_units": "K", "Tmax_value": 746.6686841225998, "Tmax_units": "K", "coeffs": [4.05949155328205, -0.003835565665241399, 5.3186040380635144e-05, -6.162047637406245e-08, 2.3242210517060023e-11, -25186098.42214424, 3.537324504259843]}, {"name": "polynomial2", "class": "NASAPolynomial", "Tmin_value": 746.6686841225998, "Tmin_units": "K", "Tmax_value": 3000.0, "Tmax_units": "K", "coeffs": [-1.046496014036793, 0.026500176421266477, -1.3747367898389822e-05, 3.490635384402257e-09, -3.493819827122593e-13, -25185419.059970565, 26.122432242478077]}]

>  <H298_value>  (2) 
-50047.2003571238

>  <H298_units>  (2) 
kcal/mol

>  <S298_value>  (2) 
54.420548043106656

>  <S298_units>  (2) 
cal/(mol*K)

>  <Cp_T_value_list>  (2) 
[12.360572544544063, 15.274308747535915, 18.259044378417013, 21.07888414556187, 25.832548078118208, 29.50517950077797, 35.34115403896942, 38.351806873475496, 39.80767330504735]

>  <Cp_T_units>  (2) 
cal/(mol*K)

>  <T_list>  (2) 
[300.0, 400.0, 500.0, 600.0, 800.0, 1000.0, 1500.0, 2000.0, 2400.0]

>  <T_units>  (2) 
K

>  <yaml_path>  (2) 
/home/calvin/Dropbox/PersonalFolders/Calvin/HAb_Converged/rxn_600/output/Species/rxn_600_CC/rxn_600_CC.yml

>  <frequencies_cm1>  (2) 
[304.49586305944, 822.3970289085198, 822.4107628791601, 1005.43652261312, 1210.79371860772, 1210.8005855930398, 1393.77140944444, 1414.4616362136, 1489.39418002544, 1489.4010470107598, 1490.3006220876798, 1490.3006220876798, 3015.21771717348, 3016.07609033848, 3072.8111230523195, 3072.8179900376404, 3096.4266855677993, 3096.4335525531196]

>  <ZPE_kJmol>  (2) 
194.47545128409476

>  <E_elec_kJmol>  (2) 
-209603.57066506823

>  <E0_minus_Eelec_plus_ZPE_kJmol>  (2) 
0.0

>  <rxn>  (2) 
rxn_600

>  <species_type>  (2) 
p0

>  <species_folder>  (2) 
rxn_600_CC

>  <frequencies_cm1_list>  (2) 
[304.49586305944, 822.3970289085198, 822.4107628791601, 1005.43652261312, 1210.79371860772, 1210.8005855930398, 1393.77140944444, 1414.4616362136, 1489.39418002544, 1489.4010470107598, 1490.3006220876798, 1490.3006220876798, 3015.21771717348, 3016.07609033848, 3072.8111230523195, 3072.8179900376404, 3096.4266855677993, 3096.4335525531196]

>  <E0_kJmol>  (2) 
-209409

>  <H298_kJmol>  (2) 
-209397

$$$$

     RDKit          3D

 32 32  0  0  0  0  0  0  0  0999 V2000
   -0.8777    2.8979    1.5092 C   0  0  0  0  0  0  0  0  0  1  0  0
    0.2748    3.5101    0.7603 C   0  0  0  0  0  3  0  0  0  2  0  0
   -1.4643    3.6538    2.0420 H   0  0  0  0  0  0  0  0  0  3  0  0
   -0.5302    2.1750    2.2503 H   0  0  0  0  0  0  0  0  0  4  0  0
   -1.5589    2.3770    0.8325 H   0  0  0  0  0  0  0  0  0  5  0  0
    1.0507    3.9474    1.3858 H   0  0  0  0  0  0  0  0  0  6  0  0
   -0.0065    4.1726   -0.0563 H   0  0  0  0  0  0  0  0  0  7  0  0
   -1.2235   -2.5766   -0.8033 C   0  0  0  0  0  0  0  0  0  8  0  0
   -0.9633   -2.5719    0.7053 C   0  0  0  0  0  0  0  0  0  9  0  0
    0.3505   -1.8738    1.0692 C   0  0  0  0  0  0  0  0  0 10  0  0
    0.3702   -0.4808    0.4667 C   0  0  0  0  0  0  0  0  0 11  0  0
    1.6243    0.3753    0.6139 C   0  0  0  0  0  0  0  0  0 12  0  0
    1.4541    1.4386   -0.4675 C   0  0  0  0  0  0  0  0  0 13  0  0
    0.4244    0.9228   -1.4760 C   0  0  0  0  0  0  0  0  0 14  0  0
    0.1703   -0.5240   -1.0480 C   0  0  0  0  0  0  0  0  0 15  0  0
   -1.1526   -1.1736   -1.4133 C   0  0  0  0  0  0  0  0  0 16  0  0
   -0.4742   -3.2098   -1.2915 H   0  0  0  0  0  0  0  0  0 17  0  0
   -2.1956   -3.0301   -1.0098 H   0  0  0  0  0  0  0  0  0 18  0  0
   -1.7873   -2.0522    1.2068 H   0  0  0  0  0  0  0  0  0 19  0  0
   -0.9652   -3.5964    1.0844 H   0  0  0  0  0  0  0  0  0 20  0  0
    0.4698   -1.8351    2.1552 H   0  0  0  0  0  0  0  0  0 21  0  0
    1.1971   -2.4492    0.6762 H   0  0  0  0  0  0  0  0  0 22  0  0
   -0.4738    0.0828    0.8878 H   0  0  0  0  0  0  0  0  0 23  0  0
    1.7385    0.8043    1.6130 H   0  0  0  0  0  0  0  0  0 24  0  0
    2.5149   -0.2356    0.4244 H   0  0  0  0  0  0  0  0  0 25  0  0
    0.9260    2.4864    0.1157 H   0  0  0  0  0  0  0  0  0 26  0  0
    2.3764    1.8357   -0.8866 H   0  0  0  0  0  0  0  0  0 27  0  0
    0.7652    1.0043   -2.5093 H   0  0  0  0  0  0  0  0  0 28  0  0
   -0.5068    1.4985   -1.4046 H   0  0  0  0  0  0  0  0  0 29  0  0
    0.9780   -1.1459   -1.4594 H   0  0  0  0  0  0  0  0  0 30  0  0
   -1.2806   -1.2258   -2.4977 H   0  0  0  0  0  0  0  0  0 31  0  0
   -1.9735   -0.5586   -1.0253 H   0  0  0  0  0  0  0  0  0 32  0  0
  1  4  1  0
  1  3  1  0
  1  5  1  0
  1  2  1  0
  2  6  1  0
  2  7  1  0
  8 17  1  0
  8  9  1  0
  8 18  1  0
  8 16  1  0
  9 20  1  0
  9 10  1  0
  9 19  1  0
 10 21  1  0
 10 22  1  0
 10 11  1  0
 11 15  1  0
 11 12  1  0
 11 23  1  0
 12 24  1  0
 12 25  1  0
 12 13  1  0
 13 26  1  0
 13 27  1  0
 13 14  1  0
 14 28  1  0
 14 15  1  0
 14 29  1  0
 15 30  1  0
 15 16  1  0
 16 31  1  0
 16 32  1  0
M  RAD  1   2   2
M  END
>  <rmg_smiles>  (3) 
C1CCC2CCCC2C1.[CH2]C

>  <rmg_adjacency_list>  (3) 
multiplicity 2
1  C u0 p0 c0 {2,S} {3,S} {4,S} {12,S}
2  C u0 p0 c0 {1,S} {5,S} {6,S} {13,S}
3  C u0 p0 c0 {1,S} {8,S} {18,S} {19,S}
4  C u0 p0 c0 {1,S} {9,S} {20,S} {21,S}
5  C u0 p0 c0 {2,S} {9,S} {24,S} {25,S}
6  C u0 p0 c0 {2,S} {7,S} {26,S} {27,S}
7  C u0 p0 c0 {6,S} {8,S} {14,S} {15,S}
8  C u0 p0 c0 {3,S} {7,S} {16,S} {17,S}
9  C u0 p0 c0 {4,S} {5,S} {22,S} {23,S}
10 C u0 p0 c0 {11,S} {28,S} {29,S} {30,S}
11 C u1 p0 c0 {10,S} {31,S} {32,S}
12 H u0 p0 c0 {1,S}
13 H u0 p0 c0 {2,S}
14 H u0 p0 c0 {7,S}
15 H u0 p0 c0 {7,S}
16 H u0 p0 c0 {8,S}
17 H u0 p0 c0 {8,S}
18 H u0 p0 c0 {3,S}
19 H u0 p0 c0 {3,S}
20 H u0 p0 c0 {4,S}
21 H u0 p0 c0 {4,S}
22 H u0 p0 c0 {9,S}
23 H u0 p0 c0 {9,S}
24 H u0 p0 c0 {5,S}
25 H u0 p0 c0 {5,S}
26 H u0 p0 c0 {6,S}
27 H u0 p0 c0 {6,S}
28 H u0 p0 c0 {10,S}
29 H u0 p0 c0 {10,S}
30 H u0 p0 c0 {10,S}
31 H u0 p0 c0 {11,S}
32 H u0 p0 c0 {11,S}


>  <multiplicity>  (3) 
2

>  <reaction>  (3) 
rxn_600

>  <type>  (3) 
ts

>  <role_mapnums>  (3) 
{"*2": 26, "*1": 13, "*3": 2, "*0": 12, "*4": 1}

>  <role_mapidx>  (3) 
{"*2": 25, "*1": 12, "*3": 1, "*0": 11, "*4": 0}

>  <ordered_mapped_smiles>  (3) 
[C:1]([C:2]([H:6])[H:7])([H:3])([H:4])[H:5].[C:8]1([H:17])([H:18])[C:9]([H:19])([H:20])[C:10]([H:21])([H:22])[C:11]2([H:23])[C:12]([H:24])([H:25])[C:13]([H:26])([H:27])[C:14]([H:28])([H:29])[C:15]2([H:30])[C:16]1([H:31])[H:32]

>  <mol_properties>  (3) 
{"0": {"label": "*4", "atom_type": "Cs"}, "1": {"label": "*3", "atom_type": "Cs"}, "11": {"label": "*0", "atom_type": "Cs"}, "12": {"label": "*1", "atom_type": "Cs"}, "25": {"label": "*2", "atom_type": "H0"}}

>  <level_of_theory>  (3) 
wb97xd/def2tzvp

>  <lot_method>  (3) 
wb97xd

>  <lot_basis>  (3) 
def2tzvp

>  <spin_multiplicity>  (3) 
2.0

>  <optical_isomers>  (3) 
2.0

>  <modes>  (3) 
IdealGasTranslation(mass=(153.164, 'amu')),         NonlinearRotor(             inertia = ([301.408, 800.486, 832.078

>  <frequency_value>  (3) 
-1699.18

>  <frequency_units>  (3) 
cm^-1

>  <frequency_list>  (3) 
unknown

>  <arkane_path>  (3) 
/home/calvin/Dropbox/PersonalFolders/Calvin/HAb_Converged/rxn_600/output/rxns/TS0/arkane/output.py

>  <path_exists>  (3) 
True

>  <E0_value>  (3) 
-1132860.0

>  <E0_units>  (3) 
kJ/mol

>  <thermo_class>  (3) 
unknown

>  <Cp0_value>  (3) 
unknown

>  <Cp0_units>  (3) 
unknown

>  <CpInf_value>  (3) 
unknown

>  <CpInf_units>  (3) 
unknown

>  <Tmin_value>  (3) 
unknown

>  <Tmin_units>  (3) 
unknown

>  <Tmax_value>  (3) 
unknown

>  <Tmax_units>  (3) 
unknown

>  <polynomials>  (3) 
unknown

>  <H298_value>  (3) 
unknown

>  <H298_units>  (3) 
unknown

>  <S298_value>  (3) 
unknown

>  <S298_units>  (3) 
unknown

>  <Cp_T_value_list>  (3) 
unknown

>  <Cp_T_units>  (3) 
unknown

>  <T_list>  (3) 
unknown

>  <T_units>  (3) 
unknown

>  <yaml_path>  (3) 
unknown

>  <frequencies_cm1>  (3) 
unknown

>  <ZPE_kJmol>  (3) 
unknown

>  <E_elec_kJmol>  (3) 
unknown

>  <E0_minus_Eelec_plus_ZPE_kJmol>  (3) 
unknown

>  <rxn>  (3) 
unknown

>  <species_type>  (3) 
unknown

>  <species_folder>  (3) 
unknown

>  <frequencies_cm1_list>  (3) 
[]

>  <ts_imag_freq_cm1>  (3) 
-1719.8161

>  <ts_freq_out_path>  (3) 
/home/calvin/Dropbox/PersonalFolders/Calvin/HAb_Converged/rxn_600/output/rxns/TS0/geometry/freq.out

>  <E0_kJmol>  (3) 
-1.13286e+06

>  <H298_kJmol>  (3) 
unknown

$$$$

     RDKit          3D

 24 25  0  0  0  0  0  0  0  0999 V2000
   -2.3462    0.0587    0.4026 C   0  0  0  0  0  3  0  0  0  1  0  0
   -1.9216   -0.8977   -0.6619 C   0  0  0  0  0  0  0  0  0  2  0  0
   -0.4224   -0.6048   -0.8347 C   0  0  0  0  0  0  0  0  0  3  0  0
    0.4246   -1.4411    0.1277 C   0  0  0  0  0  0  0  0  0  4  0  0
    1.8615   -0.9403    0.2199 C   0  0  0  0  0  0  0  0  0  5  0  0
    1.8962    0.5175    0.6671 C   0  0  0  0  0  0  0  0  0  6  0  0
    1.1011    1.4007   -0.2911 C   0  0  0  0  0  0  0  0  0  7  0  0
   -0.3231    0.9028   -0.5260 C   0  0  0  0  0  0  0  0  0  8  0  0
   -1.3110    1.1041    0.6384 C   0  0  0  0  0  0  0  0  0  9  0  0
   -3.2900    0.0057    0.9268 H   0  0  0  0  0  0  0  0  0 10  0  0
   -2.1170   -1.9442   -0.4050 H   0  0  0  0  0  0  0  0  0 11  0  0
   -2.4616   -0.7093   -1.6016 H   0  0  0  0  0  0  0  0  0 12  0  0
   -0.0868   -0.8050   -1.8562 H   0  0  0  0  0  0  0  0  0 13  0  0
   -0.0273   -1.4106    1.1258 H   0  0  0  0  0  0  0  0  0 14  0  0
    0.4005   -2.4873   -0.1884 H   0  0  0  0  0  0  0  0  0 15  0  0
    2.4341   -1.5641    0.9101 H   0  0  0  0  0  0  0  0  0 16  0  0
    2.3441   -1.0297   -0.7603 H   0  0  0  0  0  0  0  0  0 17  0  0
    1.4821    0.5910    1.6781 H   0  0  0  0  0  0  0  0  0 18  0  0
    2.9265    0.8752    0.7283 H   0  0  0  0  0  0  0  0  0 19  0  0
    1.0758    2.4318    0.0723 H   0  0  0  0  0  0  0  0  0 20  0  0
    1.6246    1.4246   -1.2529 H   0  0  0  0  0  0  0  0  0 21  0  0
   -0.7335    1.4393   -1.3877 H   0  0  0  0  0  0  0  0  0 22  0  0
   -0.8124    0.9625    1.6085 H   0  0  0  0  0  0  0  0  0 23  0  0
   -1.7184    2.1202    0.6602 H   0  0  0  0  0  0  0  0  0 24  0  0
  1 10  1  0
  1  9  1  0
  1  2  1  0
  2 12  1  0
  2 11  1  0
  2  3  1  0
  3  4  1  0
  3 13  1  0
  3  8  1  0
  4 14  1  0
  4  5  1  0
  4 15  1  0
  5 16  1  0
  5 17  1  0
  5  6  1  0
  6  7  1  0
  6 19  1  0
  6 18  1  0
  7 20  1  0
  7 21  1  0
  7  8  1  0
  8  9  1  0
  8 22  1  0
  9 24  1  0
  9 23  1  0
M  RAD  1   1   2
M  END
>  <rmg_smiles>  (4) 
[CH]1CC2CCCCC2C1

>  <rmg_adjacency_list>  (4) 
multiplicity 2
1  C u0 p0 c0 {2,S} {3,S} {7,S} {10,S}
2  C u0 p0 c0 {1,S} {4,S} {8,S} {11,S}
3  C u0 p0 c0 {1,S} {5,S} {12,S} {13,S}
4  C u0 p0 c0 {2,S} {6,S} {18,S} {19,S}
5  C u0 p0 c0 {3,S} {6,S} {14,S} {15,S}
6  C u0 p0 c0 {4,S} {5,S} {16,S} {17,S}
7  C u0 p0 c0 {1,S} {9,S} {20,S} {21,S}
8  C u0 p0 c0 {2,S} {9,S} {22,S} {23,S}
9  C u1 p0 c0 {7,S} {8,S} {24,S}
10 H u0 p0 c0 {1,S}
11 H u0 p0 c0 {2,S}
12 H u0 p0 c0 {3,S}
13 H u0 p0 c0 {3,S}
14 H u0 p0 c0 {5,S}
15 H u0 p0 c0 {5,S}
16 H u0 p0 c0 {6,S}
17 H u0 p0 c0 {6,S}
18 H u0 p0 c0 {4,S}
19 H u0 p0 c0 {4,S}
20 H u0 p0 c0 {7,S}
21 H u0 p0 c0 {7,S}
22 H u0 p0 c0 {8,S}
23 H u0 p0 c0 {8,S}
24 H u0 p0 c0 {9,S}


>  <multiplicity>  (4) 
2

>  <reaction>  (4) 
rxn_600

>  <type>  (4) 
r1

>  <role_mapnums>  (4) 
{}

>  <role_mapidx>  (4) 
{}

>  <ordered_mapped_smiles>  (4) 
[C:1]1([H:10])[C:2]([H:11])([H:12])[C:3]2([H:13])[C:4]([H:14])([H:15])[C:5]([H:16])([H:17])[C:6]([H:18])([H:19])[C:7]([H:20])([H:21])[C:8]2([H:22])[C:9]1([H:23])[H:24]

>  <level_of_theory>  (4) 
wb97xd/def2tzvp

>  <lot_method>  (4) 
wb97xd

>  <lot_basis>  (4) 
def2tzvp

>  <spin_multiplicity>  (4) 
2.0

>  <optical_isomers>  (4) 
2.0

>  <modes>  (4) 
IdealGasTranslation(mass=(123.117, 'amu')),         NonlinearRotor(             inertia = ([182.859, 335.738, 424.72

>  <frequency_value>  (4) 
unknown

>  <frequency_units>  (4) 
unknown

>  <frequency_list>  (4) 
unknown

>  <arkane_path>  (4) 
/home/calvin/Dropbox/PersonalFolders/Calvin/HAb_Converged/rxn_600/output/Species/rxn_600_[CH]1CC2CCCCC2C1/arkane/output.py

>  <path_exists>  (4) 
True

>  <E0_value>  (4) 
-923523.381550898

>  <E0_units>  (4) 
kJ/mol

>  <thermo_class>  (4) 
NASA

>  <Cp0_value>  (4) 
33.257888

>  <Cp0_units>  (4) 
J/(mol*K)

>  <CpInf_value>  (4) 
582.01304

>  <CpInf_units>  (4) 
J/(mol*K)

>  <Tmin_value>  (4) 
10.0

>  <Tmin_units>  (4) 
K

>  <Tmax_value>  (4) 
3000.0

>  <Tmax_units>  (4) 
K

>  <polynomials>  (4) 
[{"name": "polynomial1", "class": "NASAPolynomial", "Tmin_value": 10.0, "Tmin_units": "K", "Tmax_value": 526.4834343259283, "Tmax_units": "K", "coeffs": [3.98643894828874, -0.00023182140811730054, 0.00028231001506313013, -4.759214837969805e-07, 2.590692260082836e-10, -111074203.63386503, 13.49617432795343]}, {"name": "polynomial2", "class": "NASAPolynomial", "Tmin_value": 526.4834343259283, "Tmin_units": "K", "Tmax_value": 3000.0, "Tmax_units": "K", "coeffs": [-8.038530107035681, 0.1064091818695619, -6.505516623617582e-05, 1.906120741359288e-08, -2.1496250536372206e-12, -111073149.21835624, 61.78404410488912]}]

>  <H298_value>  (4) 
-220721.71313565032

>  <H298_units>  (4) 
kcal/mol

>  <S298_value>  (4) 
89.39628008765251

>  <S298_units>  (4) 
cal/(mol*K)

>  <Cp_T_value_list>  (4) 
[36.90913064982296, 50.15015676910796, 61.90083300801128, 71.988043048504, 88.09755552735788, 99.81155582762689, 116.55009221226358, 124.50807980477506, 128.7878327045076]

>  <Cp_T_units>  (4) 
cal/(mol*K)

>  <T_list>  (4) 
[300.0, 400.0, 500.0, 600.0, 800.0, 1000.0, 1500.0, 2000.0, 2400.0]

>  <T_units>  (4) 
K

>  <yaml_path>  (4) 
/home/calvin/Dropbox/PersonalFolders/Calvin/HAb_Converged/rxn_600/output/Species/rxn_600_[CH]1CC2CCCCC2C1/rxn_600_CH1CC2CCCCC2C1.yml

>  <frequencies_cm1>  (4) 
[146.42472797835998, 158.91577427544, 205.58380651015997, 300.86322782516, 319.93971304412, 341.24796849208, 360.57166518256, 413.82513633915994, 476.2185649566799, 587.1615797866, 608.54537207308, 718.4995410169199, 772.020824601, 810.8742275415599, 835.6159756495199, 860.57746728772, 899.1355898595199, 910.8163318888398, 920.0592941295598, 932.81815285412, 958.1367277289598, 1008.73267556672, 1015.1807747821998, 1048.8564707914802, 1053.3474791907602, 1058.02389619368, 1092.04294146896, 1112.6850993408798, 1130.1890449215598, 1155.4664178844798, 1170.0381607335198, 1233.24876060412, 1247.16813984776, 1271.69014442548, 1273.9081806838399, 1295.6902581188797, 1312.967593184, 1330.9247597958001, 1338.83552688444, 1355.8175815808, 1365.2802873517599, 1368.27429295128, 1378.8425833587598, 1392.36367745384, 1394.5061768736798, 1457.40089541956, 1463.74598985524, 1472.3503224611998, 1478.6336140289998, 1482.5340616907597, 1495.07317688508, 2942.0225206476, 2948.31267920072, 2993.1403593696796, 2993.82705790168, 2997.4802940919203, 3004.5876238981195, 3006.34557214004, 3011.77049054284, 3016.1790951182797, 3025.6898697864804, 3042.96033786628, 3048.17924670948, 3052.8556637123997, 3057.50461277404, 3183.91894552992]

>  <ZPE_kJmol>  (4) 
574.904176107268

>  <E_elec_kJmol>  (4) 
-924098.2857270052

>  <E0_minus_Eelec_plus_ZPE_kJmol>  (4) 
0.0

>  <rxn>  (4) 
rxn_600

>  <species_type>  (4) 
p1

>  <species_folder>  (4) 
rxn_600_[CH]1CC2CCCCC2C1

>  <frequencies_cm1_list>  (4) 
[146.42472797835998, 158.91577427544, 205.58380651015997, 300.86322782516, 319.93971304412, 341.24796849208, 360.57166518256, 413.82513633915994, 476.2185649566799, 587.1615797866, 608.54537207308, 718.4995410169199, 772.020824601, 810.8742275415599, 835.6159756495199, 860.57746728772, 899.1355898595199, 910.8163318888398, 920.0592941295598, 932.81815285412, 958.1367277289598, 1008.73267556672, 1015.1807747821998, 1048.8564707914802, 1053.3474791907602, 1058.02389619368, 1092.04294146896, 1112.6850993408798, 1130.1890449215598, 1155.4664178844798, 1170.0381607335198, 1233.24876060412, 1247.16813984776, 1271.69014442548, 1273.9081806838399, 1295.6902581188797, 1312.967593184, 1330.9247597958001, 1338.83552688444, 1355.8175815808, 1365.2802873517599, 1368.27429295128, 1378.8425833587598, 1392.36367745384, 1394.5061768736798, 1457.40089541956, 1463.74598985524, 1472.3503224611998, 1478.6336140289998, 1482.5340616907597, 1495.07317688508, 2942.0225206476, 2948.31267920072, 2993.1403593696796, 2993.82705790168, 2997.4802940919203, 3004.5876238981195, 3006.34557214004, 3011.77049054284, 3016.1790951182797, 3025.6898697864804, 3042.96033786628, 3048.17924670948, 3052.8556637123997, 3057.50461277404, 3183.91894552992]

>  <E0_kJmol>  (4) 
-923523

>  <H298_kJmol>  (4) 
-923500

$$$$

     RDKit          3D

  7  6  0  0  0  0  0  0  0  0999 V2000
   -0.6201    0.0189   -0.0017 C   0  0  0  0  0  0  0  0  0  1  0  0
    0.8589   -0.0553    0.0500 C   0  0  0  0  0  3  0  0  0  2  0  0
   -1.0738   -0.9730   -0.0559 H   0  0  0  0  0  0  0  0  0  3  0  0
   -0.9680    0.5706   -0.8872 H   0  0  0  0  0  0  0  0  0  4  0  0
   -1.0303    0.5369    0.8678 H   0  0  0  0  0  0  0  0  0  5  0  0
    1.3939   -0.8386   -0.4695 H   0  0  0  0  0  0  0  0  0  6  0  0
    1.4394    0.7404    0.4965 H   0  0  0  0  0  0  0  0  0  7  0  0
  1  5  1  0
  1  4  1  0
  1  3  1  0
  1  2  1  0
  2  7  1  0
  2  6  1  0
M  RAD  1   2   2
M  END
>  <rmg_smiles>  (5) 
C[CH2]

>  <rmg_adjacency_list>  (5) 
multiplicity 2
1 C u0 p0 c0 {2,S} {3,S} {4,S} {5,S}
2 C u1 p0 c0 {1,S} {6,S} {7,S}
3 H u0 p0 c0 {1,S}
4 H u0 p0 c0 {1,S}
5 H u0 p0 c0 {1,S}
6 H u0 p0 c0 {2,S}
7 H u0 p0 c0 {2,S}


>  <multiplicity>  (5) 
2

>  <reaction>  (5) 
rxn_600

>  <type>  (5) 
r2

>  <role_mapnums>  (5) 
{}

>  <role_mapidx>  (5) 
{}

>  <ordered_mapped_smiles>  (5) 
[C:1]([C:2]([H:6])[H:7])([H:3])([H:4])[H:5]

>  <level_of_theory>  (5) 
wb97xd/def2tzvp

>  <lot_method>  (5) 
wb97xd

>  <lot_basis>  (5) 
def2tzvp

>  <spin_multiplicity>  (5) 
2.0

>  <optical_isomers>  (5) 
1.0

>  <modes>  (5) 
IdealGasTranslation(mass=(29.0391, 'amu')),         NonlinearRotor(             inertia = ([4.86051, 22.0602, 23.8144

>  <frequency_value>  (5) 
unknown

>  <frequency_units>  (5) 
unknown

>  <frequency_list>  (5) 
unknown

>  <arkane_path>  (5) 
/home/calvin/Dropbox/PersonalFolders/Calvin/HAb_Converged/rxn_600/output/Species/rxn_600_C[CH2]/arkane/output.py

>  <path_exists>  (5) 
True

>  <E0_value>  (5) 
-207679.78865121285

>  <E0_units>  (5) 
kJ/mol

>  <thermo_class>  (5) 
NASA

>  <Cp0_value>  (5) 
33.257888

>  <Cp0_units>  (5) 
J/(mol*K)

>  <CpInf_value>  (5) 
157.97496800000002

>  <CpInf_units>  (5) 
J/(mol*K)

>  <Tmin_value>  (5) 
10.0

>  <Tmin_units>  (5) 
K

>  <Tmax_value>  (5) 
3000.0

>  <Tmax_units>  (5) 
K

>  <polynomials>  (5) 
[{"name": "polynomial1", "class": "NASAPolynomial", "Tmin_value": 10.0, "Tmin_units": "K", "Tmax_value": 487.87976470861213, "Tmax_units": "K", "coeffs": [3.9121871353579607, 0.009303342355112522, -1.0632548237956822e-05, 4.8831908404358495e-08, -4.7450160133634566e-11, -24978109.370781355, 5.932423398139755]}, {"name": "polynomial2", "class": "NASAPolynomial", "Tmin_value": 487.87976470861213, "Tmin_units": "K", "Tmax_value": 3000.0, "Tmax_units": "K", "coeffs": [1.255601804674027, 0.02015925973571526, -1.042095542288469e-05, 2.645655029251924e-09, -2.6467461504495006e-13, -24977720.132981308, 18.174806831505954]}]

>  <H298_value>  (5) 
-49633.563072244775

>  <H298_units>  (5) 
kcal/mol

>  <S298_value>  (5) 
61.32124798502571

>  <S298_units>  (5) 
cal/(mol*K)

>  <Cp_T_value_list>  (5) 
[13.275286080102546, 15.585331501205383, 17.97260864331377, 20.143861899983392, 23.766518336877798, 26.578661465366384, 31.07297867985595, 33.426295758137194, 34.588101279891]

>  <Cp_T_units>  (5) 
cal/(mol*K)

>  <T_list>  (5) 
[300.0, 400.0, 500.0, 600.0, 800.0, 1000.0, 1500.0, 2000.0, 2400.0]

>  <T_units>  (5) 
K

>  <yaml_path>  (5) 
/home/calvin/Dropbox/PersonalFolders/Calvin/HAb_Converged/rxn_600/output/Species/rxn_600_C[CH2]/rxn_600_CCH2.yml

>  <frequencies_cm1>  (5) 
[107.07690209476, 475.05117745227994, 809.2398850354, 971.27327064612, 1064.95268438156, 1183.6279246817999, 1386.8220203006, 1452.9442219468801, 1466.90480310244, 1470.74344789632, 2948.7315653052397, 3035.3173832051198, 3081.4978594821196, 3128.7358514984, 3230.1062887922394]

>  <ZPE_kJmol>  (5) 
154.3962225328414

>  <E_elec_kJmol>  (5) 
-207834.1848737457

>  <E0_minus_Eelec_plus_ZPE_kJmol>  (5) 
0.0

>  <rxn>  (5) 
rxn_600

>  <species_type>  (5) 
r0

>  <species_folder>  (5) 
rxn_600_C[CH2]

>  <frequencies_cm1_list>  (5) 
[107.07690209476, 475.05117745227994, 809.2398850354, 971.27327064612, 1064.95268438156, 1183.6279246817999, 1386.8220203006, 1452.9442219468801, 1466.90480310244, 1470.74344789632, 2948.7315653052397, 3035.3173832051198, 3081.4978594821196, 3128.7358514984, 3230.1062887922394]

>  <E0_kJmol>  (5) 
-207680

>  <H298_kJmol>  (5) 
-207667

$$$$
