
     RDKit          3D

  9  8  0  0  0  0  0  0  0  0999 V2000
   -0.7414    1.4952   -1.6281 C   0  0  0  0  0  2  0  0  0  1  0  0
   -0.1317    0.6468   -1.0359 C   0  0  0  0  0  2  0  0  0  2  0  0
    0.6599   -0.2976   -0.3236 C   0  0  0  0  0  0  0  0  0  3  0  0
    0.2114   -0.7547    0.9424 C   0  0  0  0  0  2  0  0  0  4  0  0
   -0.1029   -1.1085    2.0472 C   0  0  0  0  0  2  0  0  0  5  0  0
   -1.3065    2.2275   -2.1533 H   0  0  0  0  0  0  0  0  0  6  0  0
    1.5291    0.2922   -0.0393 H   0  0  0  0  0  0  0  0  0  7  0  0
    1.1588   -1.0464   -0.9357 H   0  0  0  0  0  0  0  0  0  8  0  0
   -0.3986   -1.4280    3.0177 H   0  0  0  0  0  0  0  0  0  9  0  0
  1  6  1  0
  1  2  1  0
  2  3  1  0
  3  4  1  0
  3  7  1  0
  3  8  1  0
  4  5  1  0
  5  9  1  0
M  RAD  4   1   3   2   3   4   3   5   3
M  END
>  <rmg_smiles>  (1) 
[CH][C]C[C][CH]

>  <rmg_adjacency_list>  (1) 
1 C u0 p0 c0 {2,S} {3,S} {6,S} {7,S}
2 C u0 p1 c0 {1,S} {4,S}
3 C u0 p1 c0 {1,S} {5,S}
4 C u0 p1 c0 {2,S} {8,S}
5 C u0 p1 c0 {3,S} {9,S}
6 H u0 p0 c0 {1,S}
7 H u0 p0 c0 {1,S}
8 H u0 p0 c0 {4,S}
9 H u0 p0 c0 {5,S}


>  <multiplicity>  (1) 
1

>  <reaction>  (1) 
rxn_1377

>  <type>  (1) 
r1h

>  <role_mapnums>  (1) 
{"r1h_a": 3, "r1h_h": 7}

>  <role_mapidx>  (1) 
{"r1h_a": 2, "r1h_h": 6}

>  <ordered_mapped_smiles>  (1) 
[C:1]([C:2][C:3]([C:4][C:5][H:9])([H:7])[H:8])[H:6]

>  <mol_properties>  (1) 
{"2": {"label": "donator", "atom_type": "Cs"}, "6": {"label": "d_hydrogen", "atom_type": "H0"}}

>  <level_of_theory>  (1) 
wb97xd/def2tzvp

>  <lot_method>  (1) 
wb97xd

>  <lot_basis>  (1) 
def2tzvp

>  <spin_multiplicity>  (1) 
1.0

>  <optical_isomers>  (1) 
1.0

>  <modes>  (1) 
IdealGasTranslation(mass=(64.0313, 'amu')),         NonlinearRotor(             inertia = ([26.0751, 176.474, 199.453

>  <frequency_value>  (1) 
unknown

>  <frequency_units>  (1) 
unknown

>  <frequency_list>  (1) 
unknown

>  <arkane_path>  (1) 
/home/calvin/Dropbox/PersonalFolders/Calvin/HAb_Converged/rxn_1377/output/Species/rxn_1377_CtCCCtC/arkane/output.py

>  <path_exists>  (1) 
True

>  <E0_value>  (1) 
-505987.19351265096

>  <E0_units>  (1) 
kJ/mol

>  <thermo_class>  (1) 
NASA

>  <Cp0_value>  (1) 
33.257888

>  <Cp0_units>  (1) 
J/(mol*K)

>  <CpInf_value>  (1) 
207.8618

>  <CpInf_units>  (1) 
J/(mol*K)

>  <Tmin_value>  (1) 
10.0

>  <Tmin_units>  (1) 
K

>  <Tmax_value>  (1) 
3000.0

>  <Tmax_units>  (1) 
K

>  <polynomials>  (1) 
[{"name": "polynomial1", "class": "NASAPolynomial", "Tmin_value": 10.0, "Tmin_units": "K", "Tmax_value": 497.8513259912737, "Tmax_units": "K", "coeffs": [3.8915923857803536, 0.006957077216274673, 0.00011247108954423451, -2.58415972479989e-07, 1.7696354569532415e-10, -60856199.4251038, 8.432123404375208]}, {"name": "polynomial2", "class": "NASAPolynomial", "Tmin_value": 497.8513259912737, "Tmin_units": "K", "Tmax_value": 3000.0, "Tmax_units": "K", "coeffs": [4.075787334974484, 0.027762889535938477, -1.736147806652233e-05, 5.355292661241066e-09, -6.423462202508128e-13, -60856493.94799508, 4.89821145227154]}]

>  <H298_value>  (1) 
-120929.79228656254

>  <H298_units>  (1) 
kcal/mol

>  <S298_value>  (1) 
71.02155085771051

>  <S298_units>  (1) 
cal/(mol*K)

>  <Cp_T_value_list>  (1) 
[20.979509503559502, 25.16090011310623, 28.30999724146717, 30.91474121272046, 35.081264888538236, 38.134781385911204, 42.68326999943224, 45.150237682434486, 46.5496532279807]

>  <Cp_T_units>  (1) 
cal/(mol*K)

>  <T_list>  (1) 
[300.0, 400.0, 500.0, 600.0, 800.0, 1000.0, 1500.0, 2000.0, 2400.0]

>  <T_units>  (1) 
K

>  <yaml_path>  (1) 
/home/calvin/Dropbox/PersonalFolders/Calvin/HAb_Converged/rxn_1377/output/Species/rxn_1377_CtCCCtC/rxn_1377_CtCCCtC.yml

>  <frequencies_cm1>  (1) 
[136.57060404415998, 317.76287869768, 341.09689481504, 341.70805650852003, 565.30396551304, 688.26420465296, 689.33545436288, 698.59215057424, 701.977574337, 902.24633420948, 929.56320181244, 996.6124464769199, 1233.63331178204, 1332.80631377348, 1444.34675632624, 2232.8002767979997, 2237.0990096083196, 3019.1456327765195, 3054.0230512167996, 3436.67207420316, 3437.69525501584]

>  <ZPE_kJmol>  (1) 
171.88700812582363

>  <E_elec_kJmol>  (1) 
-506159.0805207768

>  <E0_minus_Eelec_plus_ZPE_kJmol>  (1) 
0.0

>  <rxn>  (1) 
rxn_1377

>  <species_type>  (1) 
r0

>  <species_folder>  (1) 
rxn_1377_CtCCCtC

>  <frequencies_cm1_list>  (1) 
[136.57060404415998, 317.76287869768, 341.09689481504, 341.70805650852003, 565.30396551304, 688.26420465296, 689.33545436288, 698.59215057424, 701.977574337, 902.24633420948, 929.56320181244, 996.6124464769199, 1233.63331178204, 1332.80631377348, 1444.34675632624, 2232.8002767979997, 2237.0990096083196, 3019.1456327765195, 3054.0230512167996, 3436.67207420316, 3437.69525501584]

>  <E0_kJmol>  (1) 
-505987

>  <H298_kJmol>  (1) 
-505970

$$$$

     RDKit          3D

  8  7  0  0  0  0  0  0  0  0999 V2000
   -0.7262   -0.8295   -1.5066 H   0  0  0  0  0  0  0  0  0  1  0  0
    1.0425   -1.3960   -0.1303 S   0  0  0  0  0  0  0  0  0  2  0  0
    0.1477   -0.2816   -1.1596 C   0  0  0  0  0  0  0  0  0  3  0  0
   -0.5050    0.8955   -0.6238 C   0  0  0  0  0  0  0  0  0  4  0  0
   -0.8875    1.1810    0.9281 S   0  0  0  0  0  0  0  0  0  5  0  0
    0.4181   -1.0235    1.0029 H   0  0  0  0  0  0  0  0  0  6  0  0
    0.6520   -0.1234   -2.1109 H   0  0  0  0  0  0  0  0  0  7  0  0
   -0.8299    1.5975   -1.3904 H   0  0  0  0  0  0  0  0  0  8  0  0
  1  3  1  0
  2  3  1  0
  2  6  1  0
  3  4  1  0
  3  7  1  0
  4  8  1  0
  4  5  1  0
M  END
>  <rmg_smiles>  (2) 
[S][CH]CS

>  <rmg_adjacency_list>  (2) 
1 S u0 p2 c0 {3,S} {8,S}
2 S u0 p2 c0 {4,S}
3 C u0 p0 c0 {1,S} {4,S} {5,S} {6,S}
4 C u0 p0 c0 {2,S} {3,S} {7,S}
5 H u0 p0 c0 {3,S}
6 H u0 p0 c0 {3,S}
7 H u0 p0 c0 {4,S}
8 H u0 p0 c0 {1,S}


>  <multiplicity>  (2) 
1

>  <reaction>  (2) 
rxn_1377

>  <type>  (2) 
r2h

>  <role_mapnums>  (2) 
{"r2h_a": 3, "r2h_h": 1}

>  <role_mapidx>  (2) 
{"r2h_a": 2, "r2h_h": 0}

>  <ordered_mapped_smiles>  (2) 
[H:1][C:3]([S:2][H:6])([CH:4]([SH:5])[H:8])[H:7]

>  <mol_properties>  (2) 
{"0": {"label": "a_hydrogen", "atom_type": "H0"}, "2": {"label": "acceptor", "atom_type": "Cs"}}

>  <level_of_theory>  (2) 
wb97xd/def2tzvp

>  <lot_method>  (2) 
wb97xd

>  <lot_basis>  (2) 
def2tzvp

>  <spin_multiplicity>  (2) 
1.0

>  <optical_isomers>  (2) 
2.0

>  <modes>  (2) 
IdealGasTranslation(mass=(91.9754, 'amu')),         NonlinearRotor(             inertia = ([28.3667, 272.927, 283.105

>  <frequency_value>  (2) 
unknown

>  <frequency_units>  (2) 
unknown

>  <frequency_list>  (2) 
unknown

>  <arkane_path>  (2) 
/home/calvin/Dropbox/PersonalFolders/Calvin/HAb_Converged/rxn_1377/output/Species/rxn_1377_SCC=S/arkane/output.py

>  <path_exists>  (2) 
True

>  <E0_value>  (2) 
-2297161.3466777904

>  <E0_units>  (2) 
kJ/mol

>  <thermo_class>  (2) 
NASA

>  <Cp0_value>  (2) 
33.257888

>  <Cp0_units>  (2) 
J/(mol*K)

>  <CpInf_value>  (2) 
182.918384

>  <CpInf_units>  (2) 
J/(mol*K)

>  <Tmin_value>  (2) 
10.0

>  <Tmin_units>  (2) 
K

>  <Tmax_value>  (2) 
3000.0

>  <Tmax_units>  (2) 
K

>  <polynomials>  (2) 
[{"name": "polynomial1", "class": "NASAPolynomial", "Tmin_value": 10.0, "Tmin_units": "K", "Tmax_value": 567.3985410848345, "Tmax_units": "K", "coeffs": [3.827762255477858, 0.0148243677948894, 3.0300423651881606e-05, -6.991525360518275e-08, 4.130808720690426e-11, -276284690.67862564, 11.183445317954005]}, {"name": "polynomial2", "class": "NASAPolynomial", "Tmin_value": 567.3985410848345, "Tmin_units": "K", "Tmax_value": 3000.0, "Tmax_units": "K", "coeffs": [3.2084105787689583, 0.02574254947061171, -1.5884331254161568e-05, 4.70098747996834e-09, -5.353239956477021e-13, -276284725.86150384, 12.891088264548623]}]

>  <H298_value>  (2) 
-549030.8628187295

>  <H298_units>  (2) 
kcal/mol

>  <S298_value>  (2) 
75.94771372042368

>  <S298_units>  (2) 
cal/(mol*K)

>  <Cp_T_value_list>  (2) 
[18.77710306271184, 22.233836008986053, 25.15286918611867, 27.585638185889195, 31.445784266887134, 34.24412324427564, 38.230364497139824, 40.139386212339545, 41.179820759380895]

>  <Cp_T_units>  (2) 
cal/(mol*K)

>  <T_list>  (2) 
[300.0, 400.0, 500.0, 600.0, 800.0, 1000.0, 1500.0, 2000.0, 2400.0]

>  <T_units>  (2) 
K

>  <yaml_path>  (2) 
/home/calvin/Dropbox/PersonalFolders/Calvin/HAb_Converged/rxn_1377/output/Species/rxn_1377_SCC=S/rxn_1377_SCC=S.yml

>  <frequencies_cm1>  (2) 
[80.75574736319999, 266.2330208564, 305.26496541528, 376.90135627352, 683.70452640048, 787.8972946608399, 844.3027120793199, 953.5015126379599, 1032.3482380822, 1160.69906069832, 1182.2888625443998, 1236.400706866, 1388.44949582144, 1449.3115867126, 2698.0591331839596, 3041.5869408022795, 3077.6798156442, 3121.4774480151596]

>  <ZPE_kJmol>  (2) 
141.6789408228882

>  <E_elec_kJmol>  (2) 
-2297303.025618613

>  <E0_minus_Eelec_plus_ZPE_kJmol>  (2) 
0.0

>  <rxn>  (2) 
rxn_1377

>  <species_type>  (2) 
p0

>  <species_folder>  (2) 
rxn_1377_SCC=S

>  <frequencies_cm1_list>  (2) 
[80.75574736319999, 266.2330208564, 305.26496541528, 376.90135627352, 683.70452640048, 787.8972946608399, 844.3027120793199, 953.5015126379599, 1032.3482380822, 1160.69906069832, 1182.2888625443998, 1236.400706866, 1388.44949582144, 1449.3115867126, 2698.0591331839596, 3041.5869408022795, 3077.6798156442, 3121.4774480151596]

>  <E0_kJmol>  (2) 
-2.29716e+06

>  <H298_kJmol>  (2) 
-2.29715e+06

$$$$

     RDKit          3D

 16 14  0  0  0  0  0  0  0  0999 V2000
   -2.4785    0.8064   -2.2725 C   0  0  0  0  0  0  0  0  0  1  0  0
   -1.8689   -0.0421   -1.6802 C   0  0  0  0  0  0  0  0  0  2  0  0
   -1.0773   -0.9865   -0.9680 C   0  0  0  0  0  3  0  0  0  3  0  0
   -1.5258   -1.4436    0.2981 C   0  0  0  0  0  0  0  0  0  4  0  0
   -1.8401   -1.7974    1.4029 C   0  0  0  0  0  0  0  0  0  5  0  0
   -3.0437    1.5386   -2.7976 H   0  0  0  0  0  0  0  0  0  6  0  0
    0.0553   -0.2179   -0.5975 H   0  0  0  0  0  0  0  0  0  7  0  0
   -0.5783   -1.7353   -1.5800 H   0  0  0  0  0  0  0  0  0  8  0  0
   -2.1358   -2.1169    2.3733 H   0  0  0  0  0  0  0  0  0  9  0  0
    2.0011   -0.6734    0.8492 S   0  0  0  0  0  0  0  0  0 10  0  0
    1.1064    0.4410   -0.1801 C   0  0  0  0  0  0  0  0  0 11  0  0
    0.4537    1.6181    0.3557 C   0  0  0  0  0  0  0  0  0 12  0  0
    0.0711    1.9036    1.9076 S   0  0  0  0  0  0  0  0  0 13  0  0
    1.3767   -0.3009    1.9823 H   0  0  0  0  0  0  0  0  0 14  0  0
    1.6106    0.5992   -1.1315 H   0  0  0  0  0  0  0  0  0 15  0  0
    0.1288    2.3201   -0.4110 H   0  0  0  0  0  0  0  0  0 16  0  0
  1  6  1  0
  1  2  1  0
  2  3  1  0
  3  4  1  0
  3  8  1  0
  4  5  1  0
  5  9  1  0
  7 11  1  0
 10 14  1  0
 10 11  1  0
 11 12  1  0
 11 15  1  0
 12 16  1  0
 12 13  1  0
M  RAD  1   3   2
M  END
>  <rmg_smiles>  (3) 
[CH][C][CH][C][CH].[S][CH]CS

>  <rmg_adjacency_list>  (3) 
multiplicity 2
1  S u0 p2 c0 {3,S} {14,S}
2  S u0 p2 c0 {4,S}
3  C u0 p0 c0 {1,S} {4,S} {10,S} {11,S}
4  C u0 p0 c0 {2,S} {3,S} {12,S}
5  C u1 p0 c0 {6,S} {7,S} {13,S}
6  C u0 p1 c0 {5,S} {8,S}
7  C u0 p1 c0 {5,S} {9,S}
8  C u0 p1 c0 {6,S} {15,S}
9  C u0 p1 c0 {7,S} {16,S}
10 H u0 p0 c0 {3,S}
11 H u0 p0 c0 {3,S}
12 H u0 p0 c0 {4,S}
13 H u0 p0 c0 {5,S}
14 H u0 p0 c0 {1,S}
15 H u0 p0 c0 {8,S}
16 H u0 p0 c0 {9,S}


>  <multiplicity>  (3) 
2

>  <reaction>  (3) 
rxn_1377

>  <type>  (3) 
ts

>  <role_mapnums>  (3) 
{"*2": 7, "*1": 3, "*3": 11, "*0": 12, "*4": 2}

>  <role_mapidx>  (3) 
{"*2": 6, "*1": 2, "*3": 10, "*0": 11, "*4": 1}

>  <ordered_mapped_smiles>  (3) 
[CH2:1]([CH2:2][C:3]([CH2:4][CH2:5][H:9])[H:8])[H:6].[H:7][C:11]([S:10][H:14])([CH:12]([SH:13])[H:16])[H:15]

>  <mol_properties>  (3) 
{"1": {"label": "*4", "atom_type": "C2s"}, "2": {"label": "*1", "atom_type": "Cs"}, "6": {"label": "*2", "atom_type": "H0"}, "10": {"label": "*3", "atom_type": "Cs"}, "11": {"label": "*0", "atom_type": "Cs"}}

>  <level_of_theory>  (3) 
wb97xd/def2tzvp

>  <lot_method>  (3) 
wb97xd

>  <lot_basis>  (3) 
def2tzvp

>  <spin_multiplicity>  (3) 
2.0

>  <optical_isomers>  (3) 
2.0

>  <modes>  (3) 
IdealGasTranslation(mass=(154.999, 'amu')),         NonlinearRotor(             inertia = ([408.374, 649.896, 737.672

>  <frequency_value>  (3) 
-1793.62

>  <frequency_units>  (3) 
cm^-1

>  <frequency_list>  (3) 
unknown

>  <arkane_path>  (3) 
/home/calvin/Dropbox/PersonalFolders/Calvin/HAb_Converged/rxn_1377/output/rxns/TS0/arkane/output.py

>  <path_exists>  (3) 
True

>  <E0_value>  (3) 
-2801450.0

>  <E0_units>  (3) 
kJ/mol

>  <thermo_class>  (3) 
unknown

>  <Cp0_value>  (3) 
unknown

>  <Cp0_units>  (3) 
unknown

>  <CpInf_value>  (3) 
unknown

>  <CpInf_units>  (3) 
unknown

>  <Tmin_value>  (3) 
unknown

>  <Tmin_units>  (3) 
unknown

>  <Tmax_value>  (3) 
unknown

>  <Tmax_units>  (3) 
unknown

>  <polynomials>  (3) 
unknown

>  <H298_value>  (3) 
unknown

>  <H298_units>  (3) 
unknown

>  <S298_value>  (3) 
unknown

>  <S298_units>  (3) 
unknown

>  <Cp_T_value_list>  (3) 
unknown

>  <Cp_T_units>  (3) 
unknown

>  <T_list>  (3) 
unknown

>  <T_units>  (3) 
unknown

>  <yaml_path>  (3) 
unknown

>  <frequencies_cm1>  (3) 
unknown

>  <ZPE_kJmol>  (3) 
unknown

>  <E_elec_kJmol>  (3) 
unknown

>  <E0_minus_Eelec_plus_ZPE_kJmol>  (3) 
unknown

>  <rxn>  (3) 
unknown

>  <species_type>  (3) 
unknown

>  <species_folder>  (3) 
unknown

>  <frequencies_cm1_list>  (3) 
[]

>  <ts_imag_freq_cm1>  (3) 
-1815.4082

>  <ts_freq_out_path>  (3) 
/home/calvin/Dropbox/PersonalFolders/Calvin/HAb_Converged/rxn_1377/output/rxns/TS0/geometry/freq.out

>  <E0_kJmol>  (3) 
-2.80145e+06

>  <H298_kJmol>  (3) 
unknown

$$$$

     RDKit          3D

  8  7  0  0  0  0  0  0  0  0999 V2000
   -2.2129    0.4855    0.7390 C   0  0  0  0  0  0  0  0  0  1  0  0
   -1.2226    0.0526    0.1974 C   0  0  0  0  0  0  0  0  0  2  0  0
   -0.1006   -0.4575   -0.4419 C   0  0  0  0  0  3  0  0  0  3  0  0
    1.1960   -0.1737   -0.0342 C   0  0  0  0  0  0  0  0  0  4  0  0
    2.3329    0.0603    0.3036 C   0  0  0  0  0  0  0  0  0  5  0  0
   -3.0803    0.8696    1.2198 H   0  0  0  0  0  0  0  0  0  6  0  0
   -0.2433   -1.1067   -1.2980 H   0  0  0  0  0  0  0  0  0  7  0  0
    3.3308    0.2700    0.6058 H   0  0  0  0  0  0  0  0  0  8  0  0
  1  6  1  0
  1  2  1  0
  2  3  1  0
  3  4  1  0
  3  7  1  0
  4  5  1  0
  5  8  1  0
M  RAD  1   3   2
M  END
>  <rmg_smiles>  (4) 
[CH]C[CH]C[CH]

>  <rmg_adjacency_list>  (4) 
multiplicity 2
1 C u1 p0 c0 {2,S} {3,S} {6,S}
2 C u0 p1 c0 {1,S} {4,S}
3 C u0 p1 c0 {1,S} {5,S}
4 C u0 p1 c0 {2,S} {7,S}
5 C u0 p1 c0 {3,S} {8,S}
6 H u0 p0 c0 {1,S}
7 H u0 p0 c0 {4,S}
8 H u0 p0 c0 {5,S}


>  <multiplicity>  (4) 
2

>  <reaction>  (4) 
rxn_1377

>  <type>  (4) 
r1

>  <role_mapnums>  (4) 
{}

>  <role_mapidx>  (4) 
{}

>  <ordered_mapped_smiles>  (4) 
[CH2:1]([CH2:2][C:3]([CH2:4][CH2:5][H:8])[H:7])[H:6]

>  <level_of_theory>  (4) 
wb97xd/def2tzvp

>  <lot_method>  (4) 
wb97xd

>  <lot_basis>  (4) 
def2tzvp

>  <spin_multiplicity>  (4) 
2.0

>  <optical_isomers>  (4) 
1.0

>  <modes>  (4) 
IdealGasTranslation(mass=(63.0235, 'amu')),         NonlinearRotor(             inertia = ([17.4877, 183.017, 200.505

>  <frequency_value>  (4) 
unknown

>  <frequency_units>  (4) 
unknown

>  <frequency_list>  (4) 
unknown

>  <arkane_path>  (4) 
/home/calvin/Dropbox/PersonalFolders/Calvin/HAb_Converged/rxn_1377/output/Species/rxn_1377_CtC[CH]CtC/arkane/output.py

>  <path_exists>  (4) 
True

>  <E0_value>  (4) 
-504350.2602594301

>  <E0_units>  (4) 
kJ/mol

>  <thermo_class>  (4) 
NASA

>  <Cp0_value>  (4) 
33.257888

>  <Cp0_units>  (4) 
J/(mol*K)

>  <CpInf_value>  (4) 
182.918384

>  <CpInf_units>  (4) 
J/(mol*K)

>  <Tmin_value>  (4) 
10.0

>  <Tmin_units>  (4) 
K

>  <Tmax_value>  (4) 
3000.0

>  <Tmax_units>  (4) 
K

>  <polynomials>  (4) 
[{"name": "polynomial1", "class": "NASAPolynomial", "Tmin_value": 10.0, "Tmin_units": "K", "Tmax_value": 511.3919089489883, "Tmax_units": "K", "coeffs": [3.8659954757573973, 0.008525616172306112, 0.00010836986673963408, -2.626119315958765e-07, 1.8230598905311024e-10, -60659320.69120562, 8.776064020238547]}, {"name": "polynomial2", "class": "NASAPolynomial", "Tmin_value": 511.3919089489883, "Tmin_units": "K", "Tmax_value": 3000.0, "Tmax_units": "K", "coeffs": [5.628254952966442, 0.022649494843224656, -1.4916539685924306e-05, 4.8216558906608004e-09, -6.002662773476099e-13, -60659865.858327985, -2.111983316915381]}]

>  <H298_value>  (4) 
-120538.51368508991

>  <H298_units>  (4) 
kcal/mol

>  <S298_value>  (4) 
71.92961318485641

>  <S298_units>  (4) 
cal/(mol*K)

>  <Cp_T_value_list>  (4) 
[20.99111005886384, 24.790978026499133, 27.40139790751197, 29.433868246293493, 32.638046849521324, 34.940256474405714, 38.30245845445545, 40.20133175263048, 41.34770744760823]

>  <Cp_T_units>  (4) 
cal/(mol*K)

>  <T_list>  (4) 
[300.0, 400.0, 500.0, 600.0, 800.0, 1000.0, 1500.0, 2000.0, 2400.0]

>  <T_units>  (4) 
K

>  <yaml_path>  (4) 
/home/calvin/Dropbox/PersonalFolders/Calvin/HAb_Converged/rxn_1377/output/Species/rxn_1377_CtC[CH]CtC/rxn_1377_CtCCHCtC.yml

>  <frequencies_cm1>  (4) 
[140.92427273703998, 354.42571332116, 356.18366156308, 383.39752438624004, 580.9812929985999, 582.4370938864399, 598.9659275516799, 670.81519495484, 678.8701687352, 681.5894949219199, 955.0809192615599, 1115.22588390928, 1366.0425227222797, 2023.89971637828, 2119.4194821794795, 3149.0140591483596, 3426.6737435772397, 3430.6016591802795]

>  <ZPE_kJmol>  (4) 
135.26507637113028

>  <E_elec_kJmol>  (4) 
-504485.5253358012

>  <E0_minus_Eelec_plus_ZPE_kJmol>  (4) 
0.0

>  <rxn>  (4) 
rxn_1377

>  <species_type>  (4) 
p1

>  <species_folder>  (4) 
rxn_1377_CtC[CH]CtC

>  <frequencies_cm1_list>  (4) 
[140.92427273703998, 354.42571332116, 356.18366156308, 383.39752438624004, 580.9812929985999, 582.4370938864399, 598.9659275516799, 670.81519495484, 678.8701687352, 681.5894949219199, 955.0809192615599, 1115.22588390928, 1366.0425227222797, 2023.89971637828, 2119.4194821794795, 3149.0140591483596, 3426.6737435772397, 3430.6016591802795]

>  <E0_kJmol>  (4) 
-504350

>  <H298_kJmol>  (4) 
-504333

$$$$

     RDKit          3D

  7  6  0  0  0  0  0  0  0  0999 V2000
    1.8092   -0.3013   -0.2242 S   0  0  0  0  0  0  0  0  0  1  0  0
    0.1552   -0.6967   -0.1137 C   0  0  0  0  0  0  0  0  0  2  0  0
   -0.8921    0.1788    0.1148 C   0  0  0  0  0  0  0  0  0  3  0  0
   -0.7548    1.8245    0.3328 S   0  0  0  0  0  1  0  0  0  4  0  0
    1.6168    1.0210   -0.0187 H   0  0  0  0  0  0  0  0  0  5  0  0
   -0.0550   -1.7522   -0.2412 H   0  0  0  0  0  0  0  0  0  6  0  0
   -1.8791   -0.2740    0.1502 H   0  0  0  0  0  0  0  0  0  7  0  0
  1  2  1  0
  1  5  1  0
  2  6  1  0
  2  3  1  0
  3  7  1  0
  3  4  1  0
M  RAD  1   4   2
M  END
>  <rmg_smiles>  (5) 
[S][CH][CH]S

>  <rmg_adjacency_list>  (5) 
multiplicity 2
1 S u0 p2 c0 {3,S} {7,S}
2 S u1 p2 c0 {4,S}
3 C u0 p0 c0 {1,S} {4,S} {5,S}
4 C u0 p0 c0 {2,S} {3,S} {6,S}
5 H u0 p0 c0 {3,S}
6 H u0 p0 c0 {4,S}
7 H u0 p0 c0 {1,S}


>  <multiplicity>  (5) 
2

>  <reaction>  (5) 
rxn_1377

>  <type>  (5) 
r2

>  <role_mapnums>  (5) 
{}

>  <role_mapidx>  (5) 
{}

>  <ordered_mapped_smiles>  (5) 
[S:1]([CH:2]([CH:3]([S:4])[H:7])[H:6])[H:5]

>  <level_of_theory>  (5) 
wb97xd/def2tzvp

>  <lot_method>  (5) 
wb97xd

>  <lot_basis>  (5) 
def2tzvp

>  <spin_multiplicity>  (5) 
2.0

>  <optical_isomers>  (5) 
1.0

>  <modes>  (5) 
IdealGasTranslation(mass=(90.9676, 'amu')),         NonlinearRotor(             inertia = ([41.4097, 197.136, 238.545

>  <frequency_value>  (5) 
unknown

>  <frequency_units>  (5) 
unknown

>  <frequency_list>  (5) 
unknown

>  <arkane_path>  (5) 
/home/calvin/Dropbox/PersonalFolders/Calvin/HAb_Converged/rxn_1377/output/Species/rxn_1377_S[CH]C=S/arkane/output.py

>  <path_exists>  (5) 
True

>  <E0_value>  (5) 
-2295558.499177116

>  <E0_units>  (5) 
kJ/mol

>  <thermo_class>  (5) 
NASA

>  <Cp0_value>  (5) 
33.257888

>  <Cp0_units>  (5) 
J/(mol*K)

>  <CpInf_value>  (5) 
157.97496800000002

>  <CpInf_units>  (5) 
J/(mol*K)

>  <Tmin_value>  (5) 
10.0

>  <Tmin_units>  (5) 
K

>  <Tmax_value>  (5) 
3000.0

>  <Tmax_units>  (5) 
K

>  <polynomials>  (5) 
[{"name": "polynomial1", "class": "NASAPolynomial", "Tmin_value": 10.0, "Tmin_units": "K", "Tmax_value": 554.7124392285518, "Tmax_units": "K", "coeffs": [3.9306502353930965, 0.004133922870558618, 7.817124796321941e-05, -1.5845467344039594e-07, 9.591038319478953e-11, -276091912.08472174, 10.601050984557745]}, {"name": "polynomial2", "class": "NASAPolynomial", "Tmin_value": 554.7124392285518, "Tmin_units": "K", "Tmax_value": 3000.0, "Tmax_units": "K", "coeffs": [3.4410377237542638, 0.02325799354743955, -1.5708672851982145e-05, 5.0491053726302925e-09, -6.172994321373326e-13, -276092097.67652106, 10.512139558674505]}]

>  <H298_value>  (5) 
-548648.1110275815

>  <H298_units>  (5) 
kcal/mol

>  <S298_value>  (5) 
72.51024917341623

>  <S298_units>  (5) 
cal/(mol*K)

>  <Cp_T_value_list>  (5) 
[17.298309340361524, 20.678524612659682, 23.305934853423146, 25.33949880526343, 28.469074134584886, 30.647025274417317, 33.58213330177607, 35.051114287355276, 35.96165263240023]

>  <Cp_T_units>  (5) 
cal/(mol*K)

>  <T_list>  (5) 
[300.0, 400.0, 500.0, 600.0, 800.0, 1000.0, 1500.0, 2000.0, 2400.0]

>  <T_units>  (5) 
K

>  <yaml_path>  (5) 
/home/calvin/Dropbox/PersonalFolders/Calvin/HAb_Converged/rxn_1377/output/Species/rxn_1377_S[CH]C=S/rxn_1377_SCHC=S.yml

>  <frequencies_cm1>  (5) 
[200.51597134399998, 323.99123438291997, 464.0365329989999, 549.3038897174399, 726.3828401642799, 743.81811589176, 881.4256347192398, 918.3837497114799, 977.1651440506799, 1183.8339342414001, 1348.94372927548, 1411.0968134068, 2564.15291944396, 3116.1761353481197, 3166.7652162005597]

>  <ZPE_kJmol>  (5) 
111.10913739733977

>  <E_elec_kJmol>  (5) 
-2295669.608314513

>  <E0_minus_Eelec_plus_ZPE_kJmol>  (5) 
0.0

>  <rxn>  (5) 
rxn_1377

>  <species_type>  (5) 
r1

>  <species_folder>  (5) 
rxn_1377_S[CH]C=S

>  <frequencies_cm1_list>  (5) 
[200.51597134399998, 323.99123438291997, 464.0365329989999, 549.3038897174399, 726.3828401642799, 743.81811589176, 881.4256347192398, 918.3837497114799, 977.1651440506799, 1183.8339342414001, 1348.94372927548, 1411.0968134068, 2564.15291944396, 3116.1761353481197, 3166.7652162005597]

>  <E0_kJmol>  (5) 
-2.29556e+06

>  <H298_kJmol>  (5) 
-2.29554e+06

$$$$
