
     RDKit          3D

 12 11  0  0  0  0  0  0  0  0999 V2000
    0.2874    0.8155   -1.1404 C   0  0  0  0  0  0  0  0  0  1  0  0
    0.0480    0.0491   -0.0668 C   0  0  0  0  0  0  0  0  0  2  0  0
    0.2229    0.5417    1.2981 C   0  0  0  0  0  0  0  0  0  3  0  0
   -0.4935   -1.3467   -0.2010 C   0  0  0  0  0  0  0  0  0  4  0  0
    0.7013    1.8124   -1.0386 H   0  0  0  0  0  0  0  0  0  5  0  0
    0.1114    0.4531   -2.1454 H   0  0  0  0  0  0  0  0  0  6  0  0
   -0.7619    0.8473    1.6447 H   0  0  0  0  0  0  0  0  0  7  0  0
    0.4887   -0.2119    2.0370 H   0  0  0  0  0  0  0  0  0  8  0  0
    0.8047    1.4545    1.3993 H   0  0  0  0  0  0  0  0  0  9  0  0
    0.2151   -2.0700    0.2107 H   0  0  0  0  0  0  0  0  0 10  0  0
   -1.4219   -1.4553    0.3661 H   0  0  0  0  0  0  0  0  0 11  0  0
   -0.6899   -1.6088   -1.2399 H   0  0  0  0  0  0  0  0  0 12  0  0
  1  5  1  0
  1  6  1  0
  1  2  1  0
  2  3  1  0
  2  4  1  0
  3  7  1  0
  3  9  1  0
  3  8  1  0
  4 12  1  0
  4 10  1  0
  4 11  1  0
M  END
>  <rmg_smiles>  (1) 
[CH2]C(C)C

>  <rmg_adjacency_list>  (1) 
1  C u0 p0 c0 {3,S} {5,S} {6,S} {7,S}
2  C u0 p0 c0 {3,S} {8,S} {9,S} {10,S}
3  C u0 p0 c0 {1,S} {2,S} {4,S}
4  C u0 p0 c0 {3,S} {11,S} {12,S}
5  H u0 p0 c0 {1,S}
6  H u0 p0 c0 {1,S}
7  H u0 p0 c0 {1,S}
8  H u0 p0 c0 {2,S}
9  H u0 p0 c0 {2,S}
10 H u0 p0 c0 {2,S}
11 H u0 p0 c0 {4,S}
12 H u0 p0 c0 {4,S}


>  <multiplicity>  (1) 
1

>  <reaction>  (1) 
rxn_13

>  <type>  (1) 
r1h

>  <role_mapnums>  (1) 
{"r1h_a": 3, "r1h_h": 7}

>  <role_mapidx>  (1) 
{"r1h_a": 2, "r1h_h": 6}

>  <ordered_mapped_smiles>  (1) 
[CH:1]([CH:2]([C:3]([H:7])([H:8])[H:9])[C:4]([H:10])([H:11])[H:12])([H:5])[H:6]

>  <mol_properties>  (1) 
{"2": {"label": "donator", "atom_type": "Cs"}, "6": {"label": "d_hydrogen", "atom_type": "H0"}}

>  <level_of_theory>  (1) 
wb97xd/def2tzvp

>  <lot_method>  (1) 
wb97xd

>  <lot_basis>  (1) 
def2tzvp

>  <spin_multiplicity>  (1) 
1.0

>  <optical_isomers>  (1) 
1.0

>  <modes>  (1) 
IdealGasTranslation(mass=(56.0626, 'amu')),         NonlinearRotor(             inertia = ([54.8518, 59.7501, 108.39

>  <frequency_value>  (1) 
unknown

>  <frequency_units>  (1) 
unknown

>  <frequency_list>  (1) 
unknown

>  <arkane_path>  (1) 
/home/calvin/Dropbox/PersonalFolders/Calvin/HAb_Converged/rxn_13/output/Species/rxn_13_C=C[C]C/arkane/output.py

>  <path_exists>  (1) 
True

>  <E0_value>  (1) 
-412534.10297182825

>  <E0_units>  (1) 
kJ/mol

>  <thermo_class>  (1) 
NASA

>  <Cp0_value>  (1) 
33.257888

>  <Cp0_units>  (1) 
J/(mol*K)

>  <CpInf_value>  (1) 
282.692048

>  <CpInf_units>  (1) 
J/(mol*K)

>  <Tmin_value>  (1) 
10.0

>  <Tmin_units>  (1) 
K

>  <Tmax_value>  (1) 
3000.0

>  <Tmax_units>  (1) 
K

>  <polynomials>  (1) 
[{"name": "polynomial1", "class": "NASAPolynomial", "Tmin_value": 10.0, "Tmin_units": "K", "Tmax_value": 498.95038699364414, "Tmax_units": "K", "coeffs": [3.901727145998344, 0.007464022643265422, 8.140069101399911e-05, -1.34043578279297e-07, 6.97293044621997e-11, -49616389.46495108, 7.853222616117349]}, {"name": "polynomial2", "class": "NASAPolynomial", "Tmin_value": 498.95038699364414, "Tmin_units": "K", "Tmax_value": 3000.0, "Tmax_units": "K", "coeffs": [-0.46305569031982813, 0.04245581638085562, -2.3795747865523038e-05, 6.513704454155295e-09, -6.973300076201757e-13, -49615953.903874084, 25.876158086063345]}]

>  <H298_value>  (1) 
-98594.07566738632

>  <H298_units>  (1) 
kcal/mol

>  <S298_value>  (1) 
69.30463799070704

>  <S298_units>  (1) 
cal/(mol*K)

>  <Cp_T_value_list>  (1) 
[20.692039833610465, 26.067634259817133, 30.973684475535098, 35.29388260591572, 42.37063891481565, 47.719559295994536, 55.907581930700104, 60.049289040400026, 62.15407678364104]

>  <Cp_T_units>  (1) 
cal/(mol*K)

>  <T_list>  (1) 
[300.0, 400.0, 500.0, 600.0, 800.0, 1000.0, 1500.0, 2000.0, 2400.0]

>  <T_units>  (1) 
K

>  <yaml_path>  (1) 
/home/calvin/Dropbox/PersonalFolders/Calvin/HAb_Converged/rxn_13/output/Species/rxn_13_C=C[C]C/rxn_13_C=CCC.yml

>  <frequencies_cm1>  (1) 
[164.27888981035997, 208.61214703628, 383.62413490179995, 441.5128211494, 443.51798086284, 703.1586958120399, 819.4785601475199, 926.9743483468, 958.5968157454, 983.81238584044, 1013.07947727428, 1078.1853650931998, 1100.5786042217198, 1296.5623652545198, 1400.6040598378397, 1403.53626256948, 1434.8222476873998, 1457.25668872784, 1469.6378632598, 1476.3812428440397, 1489.7855981886796, 1728.3034662935597, 3000.4949006473994, 3004.42281625044, 3056.59130372648, 3058.7475371169594, 3099.70910455076, 3101.8172690439997, 3116.5675535113596, 3199.42459838248]

>  <ZPE_kJmol>  (1) 
281.2425858226165

>  <E_elec_kJmol>  (1) 
-412815.3455576509

>  <E0_minus_Eelec_plus_ZPE_kJmol>  (1) 
0.0

>  <rxn>  (1) 
rxn_13

>  <species_type>  (1) 
r0

>  <species_folder>  (1) 
rxn_13_C=C[C]C

>  <frequencies_cm1_list>  (1) 
[164.27888981035997, 208.61214703628, 383.62413490179995, 441.5128211494, 443.51798086284, 703.1586958120399, 819.4785601475199, 926.9743483468, 958.5968157454, 983.81238584044, 1013.07947727428, 1078.1853650931998, 1100.5786042217198, 1296.5623652545198, 1400.6040598378397, 1403.53626256948, 1434.8222476873998, 1457.25668872784, 1469.6378632598, 1476.3812428440397, 1489.7855981886796, 1728.3034662935597, 3000.4949006473994, 3004.42281625044, 3056.59130372648, 3058.7475371169594, 3099.70910455076, 3101.8172690439997, 3116.5675535113596, 3199.42459838248]

>  <E0_kJmol>  (1) 
-412534

>  <H298_kJmol>  (1) 
-412518

$$$$

     RDKit          3D

 15 14  0  0  0  0  0  0  0  0999 V2000
    1.2234   -0.5959    0.0870 H   0  0  0  0  0  0  0  0  0  1  0  0
    0.5053    1.0544    1.0938 C   0  0  0  0  0  0  0  0  0  2  0  0
    0.2411   -0.2697    0.4290 C   0  0  0  0  0  0  0  0  0  3  0  0
   -0.2101   -1.3711    1.3517 C   0  0  0  0  0  0  0  0  0  4  0  0
   -0.5536   -0.1890   -0.8558 C   0  0  0  0  0  0  0  0  0  5  0  0
   -0.0316    0.7183   -1.7981 O   0  0  0  0  0  0  0  0  0  6  0  0
   -0.4170    1.4558    1.5315 H   0  0  0  0  0  0  0  0  0  7  0  0
    0.8755    1.7847    0.3745 H   0  0  0  0  0  0  0  0  0  8  0  0
    1.2347    0.9520    1.9002 H   0  0  0  0  0  0  0  0  0  9  0  0
   -1.2017   -1.1535    1.7665 H   0  0  0  0  0  0  0  0  0 10  0  0
   -0.2738   -2.3306    0.8329 H   0  0  0  0  0  0  0  0  0 11  0  0
    0.4761   -1.4854    2.1933 H   0  0  0  0  0  0  0  0  0 12  0  0
   -1.5698    0.1576   -0.6288 H   0  0  0  0  0  0  0  0  0 13  0  0
   -0.6509   -1.1936   -1.2889 H   0  0  0  0  0  0  0  0  0 14  0  0
    0.7610    0.3255   -2.1808 H   0  0  0  0  0  0  0  0  0 15  0  0
  1  3  1  0
  2  9  1  0
  2  8  1  0
  2  7  1  0
  2  3  1  0
  3  4  1  0
  3  5  1  0
  4 12  1  0
  4 10  1  0
  4 11  1  0
  5  6  1  0
  5 14  1  0
  5 13  1  0
  6 15  1  0
M  END
>  <rmg_smiles>  (2) 
CC(C)CO

>  <rmg_adjacency_list>  (2) 
1  O u0 p2 c0 {3,S} {15,S}
2  C u0 p0 c0 {3,S} {4,S} {5,S} {6,S}
3  C u0 p0 c0 {1,S} {2,S} {7,S} {8,S}
4  C u0 p0 c0 {2,S} {9,S} {10,S} {11,S}
5  C u0 p0 c0 {2,S} {12,S} {13,S} {14,S}
6  H u0 p0 c0 {2,S}
7  H u0 p0 c0 {3,S}
8  H u0 p0 c0 {3,S}
9  H u0 p0 c0 {4,S}
10 H u0 p0 c0 {4,S}
11 H u0 p0 c0 {4,S}
12 H u0 p0 c0 {5,S}
13 H u0 p0 c0 {5,S}
14 H u0 p0 c0 {5,S}
15 H u0 p0 c0 {1,S}


>  <multiplicity>  (2) 
1

>  <reaction>  (2) 
rxn_13

>  <type>  (2) 
r2h

>  <role_mapnums>  (2) 
{"r2h_a": 3, "r2h_h": 1}

>  <role_mapidx>  (2) 
{"r2h_a": 2, "r2h_h": 0}

>  <ordered_mapped_smiles>  (2) 
[H:1][C:3]([C:2]([H:7])([H:8])[H:9])([C:4]([H:10])([H:11])[H:12])[C:5]([O:6][H:15])([H:13])[H:14]

>  <mol_properties>  (2) 
{"0": {"label": "a_hydrogen", "atom_type": "H0"}, "2": {"label": "acceptor", "atom_type": "Cs"}}

>  <level_of_theory>  (2) 
wb97xd/def2tzvp

>  <lot_method>  (2) 
wb97xd

>  <lot_basis>  (2) 
def2tzvp

>  <spin_multiplicity>  (2) 
1.0

>  <optical_isomers>  (2) 
2.0

>  <modes>  (2) 
IdealGasTranslation(mass=(74.0732, 'amu')),         NonlinearRotor(             inertia = ([66.603, 143.905, 189.515

>  <frequency_value>  (2) 
unknown

>  <frequency_units>  (2) 
unknown

>  <frequency_list>  (2) 
unknown

>  <arkane_path>  (2) 
/home/calvin/Dropbox/PersonalFolders/Calvin/HAb_Converged/rxn_13/output/Species/rxn_13_CC[C]CO/arkane/output.py

>  <path_exists>  (2) 
True

>  <E0_value>  (2) 
-613201.798563127

>  <E0_units>  (2) 
kJ/mol

>  <thermo_class>  (2) 
NASA

>  <Cp0_value>  (2) 
33.257888

>  <Cp0_units>  (2) 
J/(mol*K)

>  <CpInf_value>  (2) 
357.522296

>  <CpInf_units>  (2) 
J/(mol*K)

>  <Tmin_value>  (2) 
10.0

>  <Tmin_units>  (2) 
K

>  <Tmax_value>  (2) 
3000.0

>  <Tmax_units>  (2) 
K

>  <polynomials>  (2) 
[{"name": "polynomial1", "class": "NASAPolynomial", "Tmin_value": 10.0, "Tmin_units": "K", "Tmax_value": 575.0651176416371, "Tmax_units": "K", "coeffs": [3.712805799436365, 0.02341794423636385, 4.945520881208784e-05, -8.422411516035852e-08, 3.9345456013228885e-11, -73751136.90729754, 10.481383297442903]}, {"name": "polynomial2", "class": "NASAPolynomial", "Tmin_value": 575.0651176416371, "Tmin_units": "K", "Tmax_value": 3000.0, "Tmax_units": "K", "coeffs": [-0.6878246335024606, 0.05402765028160735, -3.0387394291557736e-05, 8.336812494957577e-09, -8.939885093345157e-13, -73750630.77899487, 29.27712262817248]}]

>  <H298_value>  (2) 
-146553.90003462895

>  <H298_units>  (2) 
kcal/mol

>  <S298_value>  (2) 
79.77174717591569

>  <S298_units>  (2) 
cal/(mol*K)

>  <Cp_T_value_list>  (2) 
[26.298303224673802, 33.0069380139673, 39.18106842386457, 44.660864775466386, 53.63198804085297, 60.401649014178936, 70.73051971901154, 75.92834368294982, 78.56390633588433]

>  <Cp_T_units>  (2) 
cal/(mol*K)

>  <T_list>  (2) 
[300.0, 400.0, 500.0, 600.0, 800.0, 1000.0, 1500.0, 2000.0, 2400.0]

>  <T_units>  (2) 
K

>  <yaml_path>  (2) 
/home/calvin/Dropbox/PersonalFolders/Calvin/HAb_Converged/rxn_13/output/Species/rxn_13_CC[C]CO/rxn_13_CCCCO.yml

>  <frequencies_cm1>  (2) 
[130.82980431664, 216.90746530284, 234.24660323583998, 266.73431078476, 284.49233482228, 352.62656316731994, 430.94453074191995, 496.53797451855996, 825.04768524204, 903.1871111983199, 929.7966793133199, 953.3298380049599, 972.0423730019598, 1079.3527525975999, 1116.63361589988, 1149.4372047735199, 1195.51467627072, 1246.91406139092, 1321.76420137892, 1364.46311609868, 1379.29580438988, 1394.3345022406797, 1400.81006939744, 1419.04878240736, 1474.01899989396, 1475.3855299726397, 1489.2293723777598, 1494.17360180816, 1499.15903315048, 2968.2269366287196, 2974.66816885888, 3005.13698272372, 3008.8176868552396, 3047.7397596489996, 3073.490954599, 3077.9132931450795, 3086.88844295832, 3102.6138393411197, 3839.6611077073594]

>  <ZPE_kJmol>  (2) 
356.9742425885658

>  <E_elec_kJmol>  (2) 
-613558.7728057157

>  <E0_minus_Eelec_plus_ZPE_kJmol>  (2) 
0.0

>  <rxn>  (2) 
rxn_13

>  <species_type>  (2) 
p1

>  <species_folder>  (2) 
rxn_13_CC[C]CO

>  <frequencies_cm1_list>  (2) 
[130.82980431664, 216.90746530284, 234.24660323583998, 266.73431078476, 284.49233482228, 352.62656316731994, 430.94453074191995, 496.53797451855996, 825.04768524204, 903.1871111983199, 929.7966793133199, 953.3298380049599, 972.0423730019598, 1079.3527525975999, 1116.63361589988, 1149.4372047735199, 1195.51467627072, 1246.91406139092, 1321.76420137892, 1364.46311609868, 1379.29580438988, 1394.3345022406797, 1400.81006939744, 1419.04878240736, 1474.01899989396, 1475.3855299726397, 1489.2293723777598, 1494.17360180816, 1499.15903315048, 2968.2269366287196, 2974.66816885888, 3005.13698272372, 3008.8176868552396, 3047.7397596489996, 3073.490954599, 3077.9132931450795, 3086.88844295832, 3102.6138393411197, 3839.6611077073594]

>  <E0_kJmol>  (2) 
-613202

>  <H298_kJmol>  (2) 
-613182

$$$$

     RDKit          3D

 26 24  0  0  0  0  0  0  0  0999 V2000
    1.6473   -0.1299   -2.1543 C   0  0  0  0  0  0  0  0  0  1  0  0
    1.4079   -0.8963   -1.0808 C   0  0  0  0  0  0  0  0  0  2  0  0
    1.5828   -0.4038    0.2842 C   0  0  0  0  0  0  0  0  0  3  0  0
    0.8664   -2.2921   -1.2149 C   0  0  0  0  0  0  0  0  0  4  0  0
    2.0612    0.8670   -2.0526 H   0  0  0  0  0  0  0  0  0  5  0  0
    1.4713   -0.4924   -3.1594 H   0  0  0  0  0  0  0  0  0  6  0  0
    0.3785   -0.0300    0.7080 H   0  0  0  0  0  0  0  0  0  7  0  0
    1.8485   -1.1574    1.0231 H   0  0  0  0  0  0  0  0  0  8  0  0
    2.1646    0.5091    0.3853 H   0  0  0  0  0  0  0  0  0  9  0  0
    1.5749   -3.0155   -0.8032 H   0  0  0  0  0  0  0  0  0 10  0  0
   -0.0621   -2.4007   -0.6478 H   0  0  0  0  0  0  0  0  0 11  0  0
    0.6699   -2.5542   -2.2538 H   0  0  0  0  0  0  0  0  0 12  0  0
   -0.5894    1.7032    1.8018 C   0  0  0  0  0  0  0  0  0 13  0  0
   -0.8536    0.3791    1.1370 C   0  0  0  0  0  3  0  0  0 14  0  0
   -1.3048   -0.7223    2.0597 C   0  0  0  0  0  0  0  0  0 15  0  0
   -1.6483    0.4598   -0.1478 C   0  0  0  0  0  0  0  0  0 16  0  0
   -1.1263    1.3671   -1.0902 O   0  0  0  0  0  0  0  0  0 17  0  0
   -1.5117    2.1046    2.2395 H   0  0  0  0  0  0  0  0  0 18  0  0
   -0.2192    2.4335    1.0825 H   0  0  0  0  0  0  0  0  0 19  0  0
    0.1399    1.6008    2.6082 H   0  0  0  0  0  0  0  0  0 20  0  0
   -2.2964   -0.5047    2.4745 H   0  0  0  0  0  0  0  0  0 21  0  0
   -1.3685   -1.6818    1.5409 H   0  0  0  0  0  0  0  0  0 22  0  0
   -0.6187   -0.8365    2.9012 H   0  0  0  0  0  0  0  0  0 23  0  0
   -2.6645    0.8065    0.0792 H   0  0  0  0  0  0  0  0  0 24  0  0
   -1.7456   -0.5448   -0.5809 H   0  0  0  0  0  0  0  0  0 25  0  0
   -0.3338    0.9743   -1.4729 H   0  0  0  0  0  0  0  0  0 26  0  0
  1  5  1  0
  1  6  1  0
  1  2  1  0
  2  3  1  0
  2  4  1  0
  3  8  1  0
  3  7  1  0
  3  9  1  0
  4 10  1  0
  4 11  1  0
  4 12  1  0
 13 19  1  0
 13 18  1  0
 13 20  1  0
 13 14  1  0
 14 15  1  0
 14 16  1  0
 15 23  1  0
 15 22  1  0
 15 21  1  0
 16 17  1  0
 16 24  1  0
 16 25  1  0
 17 26  1  0
M  RAD  1  14   2
M  END
>  <rmg_smiles>  (3) 
C[C](C)CO.[CH2]C(C)C

>  <rmg_adjacency_list>  (3) 
multiplicity 2
1  O u0 p2 c0 {2,S} {26,S}
2  C u0 p0 c0 {1,S} {7,S} {10,S} {11,S}
3  C u0 p0 c0 {7,S} {18,S} {19,S} {20,S}
4  C u0 p0 c0 {7,S} {21,S} {22,S} {23,S}
5  C u0 p0 c0 {8,S} {12,S} {13,S} {14,S}
6  C u0 p0 c0 {8,S} {15,S} {16,S} {17,S}
7  C u1 p0 c0 {2,S} {3,S} {4,S}
8  C u0 p0 c0 {5,S} {6,S} {9,S}
9  C u0 p0 c0 {8,S} {24,S} {25,S}
10 H u0 p0 c0 {2,S}
11 H u0 p0 c0 {2,S}
12 H u0 p0 c0 {5,S}
13 H u0 p0 c0 {5,S}
14 H u0 p0 c0 {5,S}
15 H u0 p0 c0 {6,S}
16 H u0 p0 c0 {6,S}
17 H u0 p0 c0 {6,S}
18 H u0 p0 c0 {3,S}
19 H u0 p0 c0 {3,S}
20 H u0 p0 c0 {3,S}
21 H u0 p0 c0 {4,S}
22 H u0 p0 c0 {4,S}
23 H u0 p0 c0 {4,S}
24 H u0 p0 c0 {9,S}
25 H u0 p0 c0 {9,S}
26 H u0 p0 c0 {1,S}


>  <multiplicity>  (3) 
2

>  <reaction>  (3) 
rxn_13

>  <type>  (3) 
ts

>  <role_mapnums>  (3) 
{"*2": 7, "*1": 3, "*3": 14, "*0": 2, "*4": 16}

>  <role_mapidx>  (3) 
{"*2": 6, "*1": 2, "*3": 13, "*0": 1, "*4": 15}

>  <ordered_mapped_smiles>  (3) 
[CH:1]([CH:2]([C:3]([H:7])([H:8])[H:9])[C:4]([H:10])([H:11])[H:12])([H:5])[H:6].[C:13]([C:14]([C:15]([H:21])([H:22])[H:23])[C:16]([O:17][H:26])([H:24])[H:25])([H:18])([H:19])[H:20]

>  <mol_properties>  (3) 
{"1": {"label": "*0", "atom_type": "Cs"}, "2": {"label": "*1", "atom_type": "Cs"}, "6": {"label": "*2", "atom_type": "H0"}, "13": {"label": "*3", "atom_type": "Cs"}, "15": {"label": "*4", "atom_type": "Cs"}}

>  <level_of_theory>  (3) 
wb97xd/def2tzvp

>  <lot_method>  (3) 
wb97xd

>  <lot_basis>  (3) 
def2tzvp

>  <spin_multiplicity>  (3) 
2.0

>  <optical_isomers>  (3) 
2.0

>  <modes>  (3) 
IdealGasTranslation(mass=(129.128, 'amu')),         NonlinearRotor(             inertia = ([260.682, 514.821, 584.456

>  <frequency_value>  (3) 
-1685.62

>  <frequency_units>  (3) 
cm^-1

>  <frequency_list>  (3) 
unknown

>  <arkane_path>  (3) 
/home/calvin/Dropbox/PersonalFolders/Calvin/HAb_Converged/rxn_13/output/rxns/TS0/arkane/output.py

>  <path_exists>  (3) 
True

>  <E0_value>  (3) 
-1023990.0

>  <E0_units>  (3) 
kJ/mol

>  <thermo_class>  (3) 
unknown

>  <Cp0_value>  (3) 
unknown

>  <Cp0_units>  (3) 
unknown

>  <CpInf_value>  (3) 
unknown

>  <CpInf_units>  (3) 
unknown

>  <Tmin_value>  (3) 
unknown

>  <Tmin_units>  (3) 
unknown

>  <Tmax_value>  (3) 
unknown

>  <Tmax_units>  (3) 
unknown

>  <polynomials>  (3) 
unknown

>  <H298_value>  (3) 
unknown

>  <H298_units>  (3) 
unknown

>  <S298_value>  (3) 
unknown

>  <S298_units>  (3) 
unknown

>  <Cp_T_value_list>  (3) 
unknown

>  <Cp_T_units>  (3) 
unknown

>  <T_list>  (3) 
unknown

>  <T_units>  (3) 
unknown

>  <yaml_path>  (3) 
unknown

>  <frequencies_cm1>  (3) 
unknown

>  <ZPE_kJmol>  (3) 
unknown

>  <E_elec_kJmol>  (3) 
unknown

>  <E0_minus_Eelec_plus_ZPE_kJmol>  (3) 
unknown

>  <rxn>  (3) 
unknown

>  <species_type>  (3) 
unknown

>  <species_folder>  (3) 
unknown

>  <frequencies_cm1_list>  (3) 
[]

>  <ts_imag_freq_cm1>  (3) 
-1706.0927

>  <ts_freq_out_path>  (3) 
/home/calvin/Dropbox/PersonalFolders/Calvin/HAb_Converged/rxn_13/output/rxns/TS0/geometry/freq.out

>  <E0_kJmol>  (3) 
-1.02399e+06

>  <H298_kJmol>  (3) 
unknown

$$$$

     RDKit          3D

 11 10  0  0  0  0  0  0  0  0999 V2000
    1.4192   -0.3322   -0.2373 C   0  0  0  0  0  0  0  0  0  1  0  0
    0.1353    0.1259    0.0104 C   0  0  0  0  0  0  0  0  0  2  0  0
   -0.0994    1.4387    0.3575 C   0  0  0  0  0  3  0  0  0  3  0  0
   -1.0184   -0.8432   -0.0948 C   0  0  0  0  0  0  0  0  0  4  0  0
    1.6064   -1.3616   -0.5143 H   0  0  0  0  0  0  0  0  0  5  0  0
    2.2713    0.3306   -0.1599 H   0  0  0  0  0  0  0  0  0  6  0  0
    0.7172    2.1438    0.4483 H   0  0  0  0  0  0  0  0  0  7  0  0
   -1.1000    1.8033    0.5485 H   0  0  0  0  0  0  0  0  0  8  0  0
   -0.9674   -1.5884    0.7016 H   0  0  0  0  0  0  0  0  0  9  0  0
   -1.9775   -0.3322   -0.0170 H   0  0  0  0  0  0  0  0  0 10  0  0
   -0.9929   -1.3773   -1.0460 H   0  0  0  0  0  0  0  0  0 11  0  0
  1  5  1  0
  1  6  1  0
  1  2  1  0
  2  3  1  0
  2  4  1  0
  3  7  1  0
  3  8  1  0
  4  9  1  0
  4 10  1  0
  4 11  1  0
M  RAD  1   3   2
M  END
>  <rmg_smiles>  (4) 
[CH2]C([CH2])C

>  <rmg_adjacency_list>  (4) 
multiplicity 2
1  C u0 p0 c0 {2,S} {5,S} {6,S} {7,S}
2  C u0 p0 c0 {1,S} {3,S} {4,S}
3  C u1 p0 c0 {2,S} {10,S} {11,S}
4  C u0 p0 c0 {2,S} {8,S} {9,S}
5  H u0 p0 c0 {1,S}
6  H u0 p0 c0 {1,S}
7  H u0 p0 c0 {1,S}
8  H u0 p0 c0 {4,S}
9  H u0 p0 c0 {4,S}
10 H u0 p0 c0 {3,S}
11 H u0 p0 c0 {3,S}


>  <multiplicity>  (4) 
2

>  <reaction>  (4) 
rxn_13

>  <type>  (4) 
r1

>  <role_mapnums>  (4) 
{}

>  <role_mapidx>  (4) 
{}

>  <ordered_mapped_smiles>  (4) 
[CH:1]([CH:2]([C:3]([H:7])[H:8])[C:4]([H:9])([H:10])[H:11])([H:5])[H:6]

>  <level_of_theory>  (4) 
wb97xd/def2tzvp

>  <lot_method>  (4) 
wb97xd

>  <lot_basis>  (4) 
def2tzvp

>  <spin_multiplicity>  (4) 
2.0

>  <optical_isomers>  (4) 
2.0

>  <modes>  (4) 
IdealGasTranslation(mass=(55.0548, 'amu')),         NonlinearRotor(             inertia = ([50.2749, 56.9544, 104.106

>  <frequency_value>  (4) 
unknown

>  <frequency_units>  (4) 
unknown

>  <frequency_list>  (4) 
unknown

>  <arkane_path>  (4) 
/home/calvin/Dropbox/PersonalFolders/Calvin/HAb_Converged/rxn_13/output/Species/rxn_13_[CH2]C[=C]C/arkane/output.py

>  <path_exists>  (4) 
True

>  <E0_value>  (4) 
-410855.17444158817

>  <E0_units>  (4) 
kJ/mol

>  <thermo_class>  (4) 
NASA

>  <Cp0_value>  (4) 
33.257888

>  <Cp0_units>  (4) 
J/(mol*K)

>  <CpInf_value>  (4) 
257.748632

>  <CpInf_units>  (4) 
J/(mol*K)

>  <Tmin_value>  (4) 
10.0

>  <Tmin_units>  (4) 
K

>  <Tmax_value>  (4) 
3000.0

>  <Tmax_units>  (4) 
K

>  <polynomials>  (4) 
[{"name": "polynomial1", "class": "NASAPolynomial", "Tmin_value": 10.0, "Tmin_units": "K", "Tmax_value": 470.1146438794014, "Tmax_units": "K", "coeffs": [3.954796647402233, 0.002872450157006195, 0.00011674632592322161, -2.2511570634289398e-07, 1.3994868424571672e-10, -49414462.35793003, 11.57794818049774]}, {"name": "polynomial2", "class": "NASAPolynomial", "Tmin_value": 470.1146438794014, "Tmin_units": "K", "Tmax_value": 3000.0, "Tmax_units": "K", "coeffs": [0.4415935725994241, 0.03992026263782331, -2.4293683125638006e-05, 7.26896081991733e-09, -8.474885181164997e-13, -49414211.107381605, 25.0344546585906]}]

>  <H298_value>  (4) 
-98192.85015060692

>  <H298_units>  (4) 
kcal/mol

>  <S298_value>  (4) 
76.385592670644

>  <S298_units>  (4) 
cal/(mol*K)

>  <Cp_T_value_list>  (4) 
[20.62553680729987, 25.751155764175074, 30.17365643154264, 33.99769766658572, 40.15036098251711, 44.691569516418454, 51.475668461733136, 55.0441428173123, 57.00716859293214]

>  <Cp_T_units>  (4) 
cal/(mol*K)

>  <T_list>  (4) 
[300.0, 400.0, 500.0, 600.0, 800.0, 1000.0, 1500.0, 2000.0, 2400.0]

>  <T_units>  (4) 
K

>  <yaml_path>  (4) 
/home/calvin/Dropbox/PersonalFolders/Calvin/HAb_Converged/rxn_13/output/Species/rxn_13_[CH2]C[=C]C/rxn_13_CH2C=CC.yml

>  <frequencies_cm1>  (4) 
[16.961453740399996, 408.55815859872, 440.6201130578, 480.13274658908, 535.1785009142001, 564.7958085993599, 772.28863702848, 809.22615106476, 852.6048973311998, 966.3153072450799, 1010.98504675168, 1044.81868342332, 1051.75433859652, 1312.85085443356, 1369.4485474409998, 1412.2985358377998, 1471.4644813549198, 1475.4061309286, 1486.0499581746, 1528.0072384798, 3020.1688135892, 3085.2128985402396, 3104.9005454526796, 3120.7701485272, 3127.7401386269994, 3218.37061088036, 3220.73285383044]

>  <ZPE_kJmol>  (4) 
244.68222355217392

>  <E_elec_kJmol>  (4) 
-411099.8566651404

>  <E0_minus_Eelec_plus_ZPE_kJmol>  (4) 
0.0

>  <rxn>  (4) 
rxn_13

>  <species_type>  (4) 
p0

>  <species_folder>  (4) 
rxn_13_[CH2]C[=C]C

>  <frequencies_cm1_list>  (4) 
[16.961453740399996, 408.55815859872, 440.6201130578, 480.13274658908, 535.1785009142001, 564.7958085993599, 772.28863702848, 809.22615106476, 852.6048973311998, 966.3153072450799, 1010.98504675168, 1044.81868342332, 1051.75433859652, 1312.85085443356, 1369.4485474409998, 1412.2985358377998, 1471.4644813549198, 1475.4061309286, 1486.0499581746, 1528.0072384798, 3020.1688135892, 3085.2128985402396, 3104.9005454526796, 3120.7701485272, 3127.7401386269994, 3218.37061088036, 3220.73285383044]

>  <E0_kJmol>  (4) 
-410855

>  <H298_kJmol>  (4) 
-410839

$$$$

     RDKit          3D

 14 13  0  0  0  0  0  0  0  0999 V2000
   -0.0263    1.3824   -0.7006 C   0  0  0  0  0  0  0  0  0  1  0  0
   -0.2039   -0.0453   -0.3213 C   0  0  0  0  0  3  0  0  0  2  0  0
   -1.1121   -0.3782    0.8104 C   0  0  0  0  0  0  0  0  0  3  0  0
    0.8313   -1.0381   -0.7322 C   0  0  0  0  0  0  0  0  0  4  0  0
    0.3307   -2.3541   -0.9005 O   0  0  0  0  0  0  0  0  0  5  0  0
    0.6071    1.9181    0.0231 H   0  0  0  0  0  0  0  0  0  6  0  0
   -0.9831    1.9109   -0.7211 H   0  0  0  0  0  0  0  0  0  7  0  0
    0.4475    1.4899   -1.6787 H   0  0  0  0  0  0  0  0  0  8  0  0
   -2.0864    0.1051    0.6984 H   0  0  0  0  0  0  0  0  0  9  0  0
   -1.2623   -1.4541    0.9003 H   0  0  0  0  0  0  0  0  0 10  0  0
   -0.6968   -0.0235    1.7662 H   0  0  0  0  0  0  0  0  0 11  0  0
    1.6088   -1.1338    0.0391 H   0  0  0  0  0  0  0  0  0 12  0  0
    1.3350   -0.6925   -1.6447 H   0  0  0  0  0  0  0  0  0 13  0  0
   -0.3997   -2.3102   -1.5208 H   0  0  0  0  0  0  0  0  0 14  0  0
  1  8  1  0
  1  7  1  0
  1  6  1  0
  1  2  1  0
  2  3  1  0
  2  4  1  0
  3 11  1  0
  3  9  1  0
  3 10  1  0
  4 13  1  0
  4 12  1  0
  4  5  1  0
  5 14  1  0
M  RAD  1   2   2
M  END
>  <rmg_smiles>  (5) 
C[C](C)CO

>  <rmg_adjacency_list>  (5) 
multiplicity 2
1  O u0 p2 c0 {2,S} {14,S}
2  C u0 p0 c0 {1,S} {5,S} {6,S} {7,S}
3  C u0 p0 c0 {5,S} {8,S} {9,S} {10,S}
4  C u0 p0 c0 {5,S} {11,S} {12,S} {13,S}
5  C u1 p0 c0 {2,S} {3,S} {4,S}
6  H u0 p0 c0 {2,S}
7  H u0 p0 c0 {2,S}
8  H u0 p0 c0 {3,S}
9  H u0 p0 c0 {3,S}
10 H u0 p0 c0 {3,S}
11 H u0 p0 c0 {4,S}
12 H u0 p0 c0 {4,S}
13 H u0 p0 c0 {4,S}
14 H u0 p0 c0 {1,S}


>  <multiplicity>  (5) 
2

>  <reaction>  (5) 
rxn_13

>  <type>  (5) 
r2

>  <role_mapnums>  (5) 
{}

>  <role_mapidx>  (5) 
{}

>  <ordered_mapped_smiles>  (5) 
[C:1]([C:2]([C:3]([H:9])([H:10])[H:11])[C:4]([O:5][H:14])([H:12])[H:13])([H:6])([H:7])[H:8]

>  <level_of_theory>  (5) 
wb97xd/def2tzvp

>  <lot_method>  (5) 
wb97xd

>  <lot_basis>  (5) 
def2tzvp

>  <spin_multiplicity>  (5) 
2.0

>  <optical_isomers>  (5) 
2.0

>  <modes>  (5) 
IdealGasTranslation(mass=(73.0653, 'amu')),         NonlinearRotor(             inertia = ([66.6519, 141.392, 190.234

>  <frequency_value>  (5) 
unknown

>  <frequency_units>  (5) 
unknown

>  <frequency_list>  (5) 
unknown

>  <arkane_path>  (5) 
/home/calvin/Dropbox/PersonalFolders/Calvin/HAb_Converged/rxn_13/output/Species/rxn_13_C[C][C]CO/arkane/output.py

>  <path_exists>  (5) 
True

>  <E0_value>  (5) 
-611495.1349430596

>  <E0_units>  (5) 
kJ/mol

>  <thermo_class>  (5) 
NASA

>  <Cp0_value>  (5) 
33.257888

>  <Cp0_units>  (5) 
J/(mol*K)

>  <CpInf_value>  (5) 
332.57888

>  <CpInf_units>  (5) 
J/(mol*K)

>  <Tmin_value>  (5) 
10.0

>  <Tmin_units>  (5) 
K

>  <Tmax_value>  (5) 
3000.0

>  <Tmax_units>  (5) 
K

>  <polynomials>  (5) 
[{"name": "polynomial1", "class": "NASAPolynomial", "Tmin_value": 10.0, "Tmin_units": "K", "Tmax_value": 444.89285803448655, "Tmax_units": "K", "coeffs": [3.5516497294481084, 0.04549119231203356, -9.35500556411164e-05, 2.2415821551796147e-07, -1.89017142507032e-10, -73545875.69862285, 11.47675931749065]}, {"name": "polynomial2", "class": "NASAPolynomial", "Tmin_value": 444.89285803448655, "Tmin_units": "K", "Tmax_value": 3000.0, "Tmax_units": "K", "coeffs": [0.48125722327110365, 0.0496265058412315, -2.8360023030992606e-05, 7.892390846890453e-09, -8.565813367019484e-13, -73545370.22540295, 26.41330014079809]}]

>  <H298_value>  (5) 
-146145.66332159776

>  <H298_units>  (5) 
kcal/mol

>  <S298_value>  (5) 
84.88967618109803

>  <S298_units>  (5) 
cal/(mol*K)

>  <Cp_T_value_list>  (5) 
[26.431307814702723, 32.36643649688936, 38.03019801263985, 43.00572393844454, 51.11511550414589, 57.19885677382744, 66.39523256354266, 70.99891817771157, 73.36018555026162]

>  <Cp_T_units>  (5) 
cal/(mol*K)

>  <T_list>  (5) 
[300.0, 400.0, 500.0, 600.0, 800.0, 1000.0, 1500.0, 2000.0, 2400.0]

>  <T_units>  (5) 
K

>  <yaml_path>  (5) 
/home/calvin/Dropbox/PersonalFolders/Calvin/HAb_Converged/rxn_13/output/Species/rxn_13_C[C][C]CO/rxn_13_CCCCO.yml

>  <frequencies_cm1>  (5) 
[74.39691895688, 115.57822992092, 128.84524555916, 237.25434280599998, 298.41858105124, 342.64883349736, 362.94764210328, 501.66074556727995, 775.74273064444, 910.0884314449199, 933.4911174154801, 969.65952909592, 994.96437000012, 1046.9268479165598, 1072.89091941148, 1184.8433810834401, 1259.4188416586398, 1297.5237431993198, 1363.9824271262798, 1384.1782309523999, 1395.42635290656, 1412.97150039916, 1456.05496629684, 1458.62321880652, 1472.01384018052, 1478.3314666749197, 1482.21131338072, 2937.81305864644, 2941.3838910128397, 2951.21054700576, 2983.71885551064, 3027.32421229264, 3032.9002043724804, 3076.5398960810794, 3098.1708998390795, 3827.0464556745196]

>  <ZPE_kJmol>  (5) 
318.7283386735599

>  <E_elec_kJmol>  (5) 
-611813.8632817332

>  <E0_minus_Eelec_plus_ZPE_kJmol>  (5) 
0.0

>  <rxn>  (5) 
rxn_13

>  <species_type>  (5) 
r1

>  <species_folder>  (5) 
rxn_13_C[C][C]CO

>  <frequencies_cm1_list>  (5) 
[74.39691895688, 115.57822992092, 128.84524555916, 237.25434280599998, 298.41858105124, 342.64883349736, 362.94764210328, 501.66074556727995, 775.74273064444, 910.0884314449199, 933.4911174154801, 969.65952909592, 994.96437000012, 1046.9268479165598, 1072.89091941148, 1184.8433810834401, 1259.4188416586398, 1297.5237431993198, 1363.9824271262798, 1384.1782309523999, 1395.42635290656, 1412.97150039916, 1456.05496629684, 1458.62321880652, 1472.01384018052, 1478.3314666749197, 1482.21131338072, 2937.81305864644, 2941.3838910128397, 2951.21054700576, 2983.71885551064, 3027.32421229264, 3032.9002043724804, 3076.5398960810794, 3098.1708998390795, 3827.0464556745196]

>  <E0_kJmol>  (5) 
-611495

>  <H298_kJmol>  (5) 
-611473

$$$$
