
     RDKit          3D

  9  8  0  0  0  0  0  0  0  0999 V2000
    0.1405   -0.0495   -1.7615 C   0  0  0  0  0  0  0  0  0  1  0  0
    0.1171   -0.7025   -0.4065 C   0  0  0  0  0  0  0  0  0  2  0  0
   -0.1627    0.3207    1.0083 S   0  0  0  0  0  0  0  0  0  3  0  0
    0.8659    0.7659   -1.7864 H   0  0  0  0  0  0  0  0  0  4  0  0
   -0.8386    0.3638   -2.0196 H   0  0  0  0  0  0  0  0  0  5  0  0
    0.4211   -0.7749   -2.5277 H   0  0  0  0  0  0  0  0  0  6  0  0
    1.1155   -1.1163   -0.2750 H   0  0  0  0  0  0  0  0  0  7  0  0
   -0.5233   -1.5799   -0.3318 H   0  0  0  0  0  0  0  0  0  8  0  0
    0.7811    1.2341    0.7325 H   0  0  0  0  0  0  0  0  0  9  0  0
  1  5  1  0
  1  4  1  0
  1  6  1  0
  1  2  1  0
  2  8  1  0
  2  7  1  0
  2  3  1  0
  3  9  1  0
M  END
>  <rmg_smiles>  (1) 
CCS

>  <rmg_adjacency_list>  (1) 
1 S u0 p2 c0 {2,S} {9,S}
2 C u0 p0 c0 {1,S} {3,S} {4,S} {5,S}
3 C u0 p0 c0 {2,S} {6,S} {7,S} {8,S}
4 H u0 p0 c0 {2,S}
5 H u0 p0 c0 {2,S}
6 H u0 p0 c0 {3,S}
7 H u0 p0 c0 {3,S}
8 H u0 p0 c0 {3,S}
9 H u0 p0 c0 {1,S}


>  <multiplicity>  (1) 
1

>  <reaction>  (1) 
rxn_1900

>  <type>  (1) 
r1h

>  <role_mapnums>  (1) 
{"r1h_a": 2, "r1h_h": 7}

>  <role_mapidx>  (1) 
{"r1h_a": 1, "r1h_h": 6}

>  <ordered_mapped_smiles>  (1) 
[C:1]([C:2]([S:3][H:9])([H:7])[H:8])([H:4])([H:5])[H:6]

>  <mol_properties>  (1) 
{"1": {"label": "donator", "atom_type": "Cs"}, "6": {"label": "d_hydrogen", "atom_type": "H0"}}

>  <level_of_theory>  (1) 
wb97xd/def2tzvp

>  <lot_method>  (1) 
wb97xd

>  <lot_basis>  (1) 
def2tzvp

>  <spin_multiplicity>  (1) 
1.0

>  <optical_isomers>  (1) 
2.0

>  <modes>  (1) 
IdealGasTranslation(mass=(62.019, 'amu')),         NonlinearRotor(             inertia = ([17.3187, 95.472, 104.033

>  <frequency_value>  (1) 
unknown

>  <frequency_units>  (1) 
unknown

>  <frequency_list>  (1) 
unknown

>  <arkane_path>  (1) 
/home/calvin/Dropbox/PersonalFolders/Calvin/HAb_Converged/rxn_1900/output/Species/rxn_1900_CCS/arkane/output.py

>  <path_exists>  (1) 
True

>  <E0_value>  (1) 
-1254880.5529024522

>  <E0_units>  (1) 
kJ/mol

>  <thermo_class>  (1) 
NASA

>  <Cp0_value>  (1) 
33.257888

>  <Cp0_units>  (1) 
J/(mol*K)

>  <CpInf_value>  (1) 
207.8618

>  <CpInf_units>  (1) 
J/(mol*K)

>  <Tmin_value>  (1) 
10.0

>  <Tmin_units>  (1) 
K

>  <Tmax_value>  (1) 
3000.0

>  <Tmax_units>  (1) 
K

>  <polynomials>  (1) 
[{"name": "polynomial1", "class": "NASAPolynomial", "Tmin_value": 10.0, "Tmin_units": "K", "Tmax_value": 456.94948299224984, "Tmax_units": "K", "coeffs": [3.912577314484764, 0.006155835235539537, 5.7903825438107485e-05, -1.0305013689181765e-07, 5.821300208274409e-11, -150927266.1091598, 9.021117963799174]}, {"name": "polynomial2", "class": "NASAPolynomial", "Tmin_value": 456.94948299224984, "Tmin_units": "K", "Tmax_value": 3000.0, "Tmax_units": "K", "coeffs": [1.355855578836548, 0.028536757084491292, -1.5565109771775804e-05, 4.138069148493327e-09, -4.3071999280991065e-13, -150927032.45208073, 19.35342692911781]}]

>  <H298_value>  (1) 
-299920.11857407144

>  <H298_units>  (1) 
kcal/mol

>  <S298_value>  (1) 
69.39854649104441

>  <S298_units>  (1) 
cal/(mol*K)

>  <Cp_T_value_list>  (1) 
[17.20889788741788, 20.934361161930582, 24.290211927280414, 27.249513376784144, 32.124901067035445, 35.83897523204632, 41.58221183782978, 44.477584292835935, 45.911331144631184]

>  <Cp_T_units>  (1) 
cal/(mol*K)

>  <T_list>  (1) 
[300.0, 400.0, 500.0, 600.0, 800.0, 1000.0, 1500.0, 2000.0, 2400.0]

>  <T_units>  (1) 
K

>  <yaml_path>  (1) 
/home/calvin/Dropbox/PersonalFolders/Calvin/HAb_Converged/rxn_1900/output/Species/rxn_1900_CCS/rxn_1900_CCS.yml

>  <frequencies_cm1>  (1) 
[202.32885546847996, 256.50936964327997, 331.52431727896, 667.1482247939599, 735.969151671, 875.5955641825599, 988.159187548, 1063.6273562148, 1117.6087278153198, 1273.38628979952, 1303.10660226448, 1402.5542836687198, 1466.616389719, 1477.4456255686398, 1483.85938985752, 2700.25656848636, 3013.3430301811195, 3044.51914353392, 3080.6051513905195, 3088.40604671404, 3107.9357529641197]

>  <ZPE_kJmol>  (1) 
195.4728851436989

>  <E_elec_kJmol>  (1) 
-1255076.025787596

>  <E0_minus_Eelec_plus_ZPE_kJmol>  (1) 
0.0

>  <rxn>  (1) 
rxn_1900

>  <species_type>  (1) 
r1

>  <species_folder>  (1) 
rxn_1900_CCS

>  <frequencies_cm1_list>  (1) 
[202.32885546847996, 256.50936964327997, 331.52431727896, 667.1482247939599, 735.969151671, 875.5955641825599, 988.159187548, 1063.6273562148, 1117.6087278153198, 1273.38628979952, 1303.10660226448, 1402.5542836687198, 1466.616389719, 1477.4456255686398, 1483.85938985752, 2700.25656848636, 3013.3430301811195, 3044.51914353392, 3080.6051513905195, 3088.40604671404, 3107.9357529641197]

>  <E0_kJmol>  (1) 
-1.25488e+06

>  <H298_kJmol>  (1) 
-1.25487e+06

$$$$

     RDKit          3D

 19 19  0  0  0  0  0  0  0  0999 V2000
   -0.9964   -2.0053    1.2298 C   0  0  0  0  0  0  0  0  0  1  0  0
   -0.8165   -1.1236    0.0149 C   0  0  0  0  0  0  0  0  0  2  0  0
   -0.0959    0.1635    0.2001 C   0  0  0  0  0  0  0  0  0  3  0  0
    0.2355    0.6293    1.4756 C   0  0  0  0  0  0  0  0  0  4  0  0
    0.8299    1.8690    1.6535 C   0  0  0  0  0  0  0  0  0  5  0  0
    1.1019    2.6803    0.5642 C   0  0  0  0  0  0  0  0  0  6  0  0
    0.7803    2.2328   -0.7100 C   0  0  0  0  0  0  0  0  0  7  0  0
    0.1941    0.9931   -0.8894 C   0  0  0  0  0  0  0  0  0  8  0  0
   -0.4411   -2.0348   -1.4955 S   0  0  0  0  0  0  0  0  0  9  0  0
   -1.5704   -2.8916    0.9642 H   0  0  0  0  0  0  0  0  0 10  0  0
   -0.0341   -2.3364    1.6323 H   0  0  0  0  0  0  0  0  0 11  0  0
   -1.5358   -1.4754    2.0183 H   0  0  0  0  0  0  0  0  0 12  0  0
    0.0292    0.0217    2.3455 H   0  0  0  0  0  0  0  0  0 13  0  0
    1.0800    2.2008    2.6535 H   0  0  0  0  0  0  0  0  0 14  0  0
    1.5641    3.6490    0.7042 H   0  0  0  0  0  0  0  0  0 15  0  0
    0.9908    2.8535   -1.5721 H   0  0  0  0  0  0  0  0  0 16  0  0
   -0.0431    0.6500   -1.8880 H   0  0  0  0  0  0  0  0  0 17  0  0
    0.8840   -2.1531   -1.3145 H   0  0  0  0  0  0  0  0  0 18  0  0
   -1.8360   -0.7978   -0.1914 H   0  0  0  0  0  0  0  0  0 19  0  0
  1 11  1  0
  1 10  1  0
  1 12  1  0
  1  2  1  0
  2  9  1  0
  2  3  1  0
  2 19  1  0
  3  4  1  0
  3  8  1  0
  4  5  1  0
  4 13  1  0
  5 14  1  0
  5  6  1  0
  6  7  1  0
  6 15  1  0
  7  8  1  0
  7 16  1  0
  8 17  1  0
  9 18  1  0
M  END
>  <rmg_smiles>  (2) 
CC([C]1[CH][CH][CH][CH][CH]1)S

>  <rmg_adjacency_list>  (2) 
1  S u0 p2 c0 {2,S} {19,S}
2  C u0 p0 c0 {1,S} {3,S} {4,S} {10,S}
3  C u0 p0 c0 {2,S} {11,S} {12,S} {13,S}
4  C u0 p0 c0 {2,S} {5,S} {6,S}
5  C u0 p0 c0 {4,S} {7,S} {14,S}
6  C u0 p0 c0 {4,S} {9,S} {18,S}
7  C u0 p0 c0 {5,S} {8,S} {15,S}
8  C u0 p0 c0 {7,S} {9,S} {16,S}
9  C u0 p0 c0 {6,S} {8,S} {17,S}
10 H u0 p0 c0 {2,S}
11 H u0 p0 c0 {3,S}
12 H u0 p0 c0 {3,S}
13 H u0 p0 c0 {3,S}
14 H u0 p0 c0 {5,S}
15 H u0 p0 c0 {7,S}
16 H u0 p0 c0 {8,S}
17 H u0 p0 c0 {9,S}
18 H u0 p0 c0 {6,S}
19 H u0 p0 c0 {1,S}


>  <multiplicity>  (2) 
1

>  <reaction>  (2) 
rxn_1900

>  <type>  (2) 
r2h

>  <role_mapnums>  (2) 
{"r2h_a": 2, "r2h_h": 19}

>  <role_mapidx>  (2) 
{"r2h_a": 1, "r2h_h": 18}

>  <ordered_mapped_smiles>  (2) 
[C:1]([C:2]([CH:3]1[CH:4]([H:13])[CH:5]([H:14])[CH:6]([H:15])[CH:7]([H:16])[CH:8]1[H:17])([S:9][H:18])[H:19])([H:10])([H:11])[H:12]

>  <mol_properties>  (2) 
{"1": {"label": "acceptor", "atom_type": "Cs"}, "18": {"label": "a_hydrogen", "atom_type": "H0"}}

>  <level_of_theory>  (2) 
wb97xd/def2tzvp

>  <lot_method>  (2) 
wb97xd

>  <lot_basis>  (2) 
def2tzvp

>  <spin_multiplicity>  (2) 
1.0

>  <optical_isomers>  (2) 
2.0

>  <modes>  (2) 
IdealGasTranslation(mass=(138.05, 'amu')),         NonlinearRotor(             inertia = ([178.651, 604.969, 626.407

>  <frequency_value>  (2) 
unknown

>  <frequency_units>  (2) 
unknown

>  <frequency_list>  (2) 
unknown

>  <arkane_path>  (2) 
/home/calvin/Dropbox/PersonalFolders/Calvin/HAb_Converged/rxn_1900/output/Species/rxn_1900_CC[c1ccccc1]S/arkane/output.py

>  <path_exists>  (2) 
True

>  <E0_value>  (2) 
-1861292.4343676723

>  <E0_units>  (2) 
kJ/mol

>  <thermo_class>  (2) 
NASA

>  <Cp0_value>  (2) 
33.257888

>  <Cp0_units>  (2) 
J/(mol*K)

>  <CpInf_value>  (2) 
457.29596

>  <CpInf_units>  (2) 
J/(mol*K)

>  <Tmin_value>  (2) 
10.0

>  <Tmin_units>  (2) 
K

>  <Tmax_value>  (2) 
3000.0

>  <Tmax_units>  (2) 
K

>  <polynomials>  (2) 
[{"name": "polynomial1", "class": "NASAPolynomial", "Tmin_value": 10.0, "Tmin_units": "K", "Tmax_value": 722.7616744569866, "Tmax_units": "K", "coeffs": [3.6608533227483653, 0.034299332196685704, 8.821883115852826e-05, -1.584542646916719e-07, 7.500364732169423e-11, -223861769.38722867, 13.927803415551569]}, {"name": "polynomial2", "class": "NASAPolynomial", "Tmin_value": 722.7616744569866, "Tmin_units": "K", "Tmax_value": 3000.0, "Tmax_units": "K", "coeffs": [1.7720178422365245, 0.07095916711245473, -4.225205035672475e-05, 1.2057391060342385e-08, -1.328063748143673e-12, -223862180.84243393, 17.691838255156064]}]

>  <H298_value>  (2) 
-444853.3734063984

>  <H298_units>  (2) 
kcal/mol

>  <S298_value>  (2) 
94.73497621672396

>  <S298_units>  (2) 
cal/(mol*K)

>  <Cp_T_value_list>  (2) 
[36.20613177426401, 46.25147541207984, 55.13737353773694, 62.58425362581164, 73.77990725273587, 81.88972340227896, 93.62530136055871, 99.14622173560284, 101.98664709703836]

>  <Cp_T_units>  (2) 
cal/(mol*K)

>  <T_list>  (2) 
[300.0, 400.0, 500.0, 600.0, 800.0, 1000.0, 1500.0, 2000.0, 2400.0]

>  <T_units>  (2) 
K

>  <yaml_path>  (2) 
/home/calvin/Dropbox/PersonalFolders/Calvin/HAb_Converged/rxn_1900/output/Species/rxn_1900_CC[c1ccccc1]S/rxn_1900_CCc1ccccc1S.yml

>  <frequencies_cm1>  (2) 
[38.619925439679996, 113.133583147, 200.19322303395995, 216.24136772679998, 249.58744844071998, 264.58494437959996, 299.67523936479995, 404.45856836267996, 414.23028847304, 539.0240126934, 577.57526827988, 629.64075097612, 697.3217582900401, 715.539870344, 784.2097235439999, 800.5325476496399, 862.09507104344, 870.4384582072399, 934.92631734736, 982.8922098075599, 986.64158379228, 999.0158913389199, 1015.9910790499598, 1051.4521912424398, 1079.23601384716, 1092.59230029456, 1120.4928616497198, 1175.6004188427198, 1201.4614855578398, 1220.57917268872, 1250.5123616985998, 1304.7272107999997, 1341.2664396877199, 1372.07860281856, 1401.9293880046, 1478.2421958657599, 1482.9872827218799, 1485.9538203801196, 1528.5771982613599, 1640.6257977278, 1660.5537891264398, 2704.47289747284, 3020.3404882222, 3056.7767123301196, 3100.1005227139995, 3101.6112594843994, 3145.2166162663993, 3154.1093622557996, 3163.29052162864, 3171.9360561465196, 3182.5386814805997]

>  <ZPE_kJmol>  (2) 
408.44008821903617

>  <E_elec_kJmol>  (2) 
-1861700.8744558915

>  <E0_minus_Eelec_plus_ZPE_kJmol>  (2) 
0.0

>  <rxn>  (2) 
rxn_1900

>  <species_type>  (2) 
p0

>  <species_folder>  (2) 
rxn_1900_CC[c1ccccc1]S

>  <frequencies_cm1_list>  (2) 
[38.619925439679996, 113.133583147, 200.19322303395995, 216.24136772679998, 249.58744844071998, 264.58494437959996, 299.67523936479995, 404.45856836267996, 414.23028847304, 539.0240126934, 577.57526827988, 629.64075097612, 697.3217582900401, 715.539870344, 784.2097235439999, 800.5325476496399, 862.09507104344, 870.4384582072399, 934.92631734736, 982.8922098075599, 986.64158379228, 999.0158913389199, 1015.9910790499598, 1051.4521912424398, 1079.23601384716, 1092.59230029456, 1120.4928616497198, 1175.6004188427198, 1201.4614855578398, 1220.57917268872, 1250.5123616985998, 1304.7272107999997, 1341.2664396877199, 1372.07860281856, 1401.9293880046, 1478.2421958657599, 1482.9872827218799, 1485.9538203801196, 1528.5771982613599, 1640.6257977278, 1660.5537891264398, 2704.47289747284, 3020.3404882222, 3056.7767123301196, 3100.1005227139995, 3101.6112594843994, 3145.2166162663993, 3154.1093622557996, 3163.29052162864, 3171.9360561465196, 3182.5386814805997]

>  <E0_kJmol>  (2) 
-1.86129e+06

>  <H298_kJmol>  (2) 
-1.86127e+06

$$$$

     RDKit          3D

 27 26  0  0  0  0  0  0  0  0999 V2000
   -0.0804   -2.1980    1.1822 C   0  0  0  0  0  0  0  0  0  1  0  0
    0.0994   -1.3163   -0.0328 C   0  0  0  0  0  0  0  0  0  2  0  0
    0.8201   -0.0292    0.1524 C   0  0  0  0  0  0  0  0  0  3  0  0
    1.1515    0.4366    1.4280 C   0  0  0  0  0  0  0  0  0  4  0  0
    1.7459    1.6763    1.6058 C   0  0  0  0  0  0  0  0  0  5  0  0
    2.0178    2.4876    0.5165 C   0  0  0  0  0  0  0  0  0  6  0  0
    1.6962    2.0401   -0.7577 C   0  0  0  0  0  0  0  0  0  7  0  0
    1.1101    0.8004   -0.9371 C   0  0  0  0  0  0  0  0  0  8  0  0
    0.4748   -2.2275   -1.5432 S   0  0  0  0  0  0  0  0  0  9  0  0
   -0.6544   -3.0843    0.9166 H   0  0  0  0  0  0  0  0  0 10  0  0
    0.8819   -2.5291    1.5846 H   0  0  0  0  0  0  0  0  0 11  0  0
   -0.6198   -1.6680    1.9706 H   0  0  0  0  0  0  0  0  0 12  0  0
    0.9452   -0.1709    2.2978 H   0  0  0  0  0  0  0  0  0 13  0  0
    1.9960    2.0081    2.6058 H   0  0  0  0  0  0  0  0  0 14  0  0
    2.4800    3.4563    0.6565 H   0  0  0  0  0  0  0  0  0 15  0  0
    1.9068    2.6609   -1.6198 H   0  0  0  0  0  0  0  0  0 16  0  0
    0.8729    0.4573   -1.9356 H   0  0  0  0  0  0  0  0  0 17  0  0
    1.8000   -2.3458   -1.3621 H   0  0  0  0  0  0  0  0  0 18  0  0
   -2.3816    0.2578   -1.8047 C   0  0  0  0  0  0  0  0  0 19  0  0
   -2.4050   -0.3953   -0.4497 C   0  0  0  0  0  3  0  0  0 20  0  0
   -2.6848    0.6280    0.9651 S   0  0  0  0  0  0  0  0  0 21  0  0
   -1.6562    1.0732   -1.8296 H   0  0  0  0  0  0  0  0  0 22  0  0
   -3.3607    0.6711   -2.0628 H   0  0  0  0  0  0  0  0  0 23  0  0
   -2.1010   -0.4676   -2.5709 H   0  0  0  0  0  0  0  0  0 24  0  0
   -1.1338   -0.9222   -0.2823 H   0  0  0  0  0  0  0  0  0 25  0  0
   -3.0454   -1.2726   -0.3750 H   0  0  0  0  0  0  0  0  0 26  0  0
   -1.7410    1.5414    0.6893 H   0  0  0  0  0  0  0  0  0 27  0  0
  1 11  1  0
  1 10  1  0
  1 12  1  0
  1  2  1  0
  2  9  1  0
  2  3  1  0
  2 25  1  0
  3  4  1  0
  3  8  1  0
  4  5  1  0
  4 13  1  0
  5 14  1  0
  5  6  1  0
  6  7  1  0
  6 15  1  0
  7  8  1  0
  7 16  1  0
  8 17  1  0
  9 18  1  0
 19 20  1  0
 19 23  1  0
 19 22  1  0
 19 24  1  0
 20 21  1  0
 20 26  1  0
 21 27  1  0
M  RAD  1  20   2
M  END
>  <rmg_smiles>  (3) 
CC([C]1[CH][CH][CH][CH][CH]1)S.C[CH]S

>  <rmg_adjacency_list>  (3) 
multiplicity 2
1  S u0 p2 c0 {3,S} {26,S}
2  S u0 p2 c0 {12,S} {27,S}
3  C u0 p0 c0 {1,S} {4,S} {6,S} {13,S}
4  C u0 p0 c0 {3,S} {14,S} {15,S} {16,S}
5  C u0 p0 c0 {12,S} {17,S} {18,S} {19,S}
6  C u0 p0 c0 {3,S} {7,S} {8,S}
7  C u0 p0 c0 {6,S} {9,S} {20,S}
8  C u0 p0 c0 {6,S} {11,S} {24,S}
9  C u0 p0 c0 {7,S} {10,S} {21,S}
10 C u0 p0 c0 {9,S} {11,S} {22,S}
11 C u0 p0 c0 {8,S} {10,S} {23,S}
12 C u1 p0 c0 {2,S} {5,S} {25,S}
13 H u0 p0 c0 {3,S}
14 H u0 p0 c0 {4,S}
15 H u0 p0 c0 {4,S}
16 H u0 p0 c0 {4,S}
17 H u0 p0 c0 {5,S}
18 H u0 p0 c0 {5,S}
19 H u0 p0 c0 {5,S}
20 H u0 p0 c0 {7,S}
21 H u0 p0 c0 {9,S}
22 H u0 p0 c0 {10,S}
23 H u0 p0 c0 {11,S}
24 H u0 p0 c0 {8,S}
25 H u0 p0 c0 {12,S}
26 H u0 p0 c0 {1,S}
27 H u0 p0 c0 {2,S}


>  <multiplicity>  (3) 
2

>  <reaction>  (3) 
rxn_1900

>  <type>  (3) 
ts

>  <role_mapnums>  (3) 
{"*2": 25, "*1": 20, "*3": 2, "*0": 3, "*4": 21}

>  <role_mapidx>  (3) 
{"*2": 24, "*1": 19, "*3": 1, "*0": 2, "*4": 20}

>  <ordered_mapped_smiles>  (3) 
[C:1]([C:2]([CH:3]1[CH:4]([H:13])[CH:5]([H:14])[CH:6]([H:15])[CH:7]([H:16])[CH:8]1[H:17])([S:9][H:18])[H:25])([H:10])([H:11])[H:12].[C:19]([C:20]([S:21][H:27])[H:26])([H:22])([H:23])[H:24]

>  <mol_properties>  (3) 
{"1": {"label": "*3", "atom_type": "Cs"}, "2": {"label": "*0", "atom_type": "Cs"}, "19": {"label": "*1", "atom_type": "Cs"}, "20": {"label": "*4", "atom_type": "S2s"}, "24": {"label": "*2", "atom_type": "H0"}}

>  <level_of_theory>  (3) 
wb97xd/def2tzvp

>  <lot_method>  (3) 
wb97xd

>  <lot_basis>  (3) 
def2tzvp

>  <spin_multiplicity>  (3) 
2.0

>  <optical_isomers>  (3) 
2.0

>  <modes>  (3) 
IdealGasTranslation(mass=(199.062, 'amu')),         NonlinearRotor(             inertia = ([699.003, 867.976, 1114.79

>  <frequency_value>  (3) 
-1699.15

>  <frequency_units>  (3) 
cm^-1

>  <frequency_list>  (3) 
unknown

>  <arkane_path>  (3) 
/home/calvin/Dropbox/PersonalFolders/Calvin/HAb_Converged/rxn_1900/output/rxns/TS0/arkane/output.py

>  <path_exists>  (3) 
True

>  <E0_value>  (3) 
-3114440.0

>  <E0_units>  (3) 
kJ/mol

>  <thermo_class>  (3) 
unknown

>  <Cp0_value>  (3) 
unknown

>  <Cp0_units>  (3) 
unknown

>  <CpInf_value>  (3) 
unknown

>  <CpInf_units>  (3) 
unknown

>  <Tmin_value>  (3) 
unknown

>  <Tmin_units>  (3) 
unknown

>  <Tmax_value>  (3) 
unknown

>  <Tmax_units>  (3) 
unknown

>  <polynomials>  (3) 
unknown

>  <H298_value>  (3) 
unknown

>  <H298_units>  (3) 
unknown

>  <S298_value>  (3) 
unknown

>  <S298_units>  (3) 
unknown

>  <Cp_T_value_list>  (3) 
unknown

>  <Cp_T_units>  (3) 
unknown

>  <T_list>  (3) 
unknown

>  <T_units>  (3) 
unknown

>  <yaml_path>  (3) 
unknown

>  <frequencies_cm1>  (3) 
unknown

>  <ZPE_kJmol>  (3) 
unknown

>  <E_elec_kJmol>  (3) 
unknown

>  <E0_minus_Eelec_plus_ZPE_kJmol>  (3) 
unknown

>  <rxn>  (3) 
unknown

>  <species_type>  (3) 
unknown

>  <species_folder>  (3) 
unknown

>  <frequencies_cm1_list>  (3) 
[]

>  <ts_imag_freq_cm1>  (3) 
-1719.7888

>  <ts_freq_out_path>  (3) 
/home/calvin/Dropbox/PersonalFolders/Calvin/HAb_Converged/rxn_1900/output/rxns/TS0/geometry/freq.out

>  <E0_kJmol>  (3) 
-3.11444e+06

>  <H298_kJmol>  (3) 
unknown

$$$$

     RDKit          3D

  8  7  0  0  0  0  0  0  0  0999 V2000
   -1.0607    0.1793   -0.1423 C   0  0  0  0  0  0  0  0  0  1  0  0
    0.2796    0.0327    0.4820 C   0  0  0  0  0  3  0  0  0  2  0  0
    0.8817   -1.4663    1.0791 S   0  0  0  0  0  0  0  0  0  3  0  0
   -1.3043    1.2328   -0.2850 H   0  0  0  0  0  0  0  0  0  4  0  0
   -1.8444   -0.2641    0.4799 H   0  0  0  0  0  0  0  0  0  5  0  0
   -1.1164   -0.3100   -1.1237 H   0  0  0  0  0  0  0  0  0  6  0  0
    1.0449    0.7826    0.3391 H   0  0  0  0  0  0  0  0  0  7  0  0
   -0.2993   -2.0726    1.2718 H   0  0  0  0  0  0  0  0  0  8  0  0
  1  5  1  0
  1  4  1  0
  1  6  1  0
  1  2  1  0
  2  7  1  0
  2  3  1  0
  3  8  1  0
M  RAD  1   2   2
M  END
>  <rmg_smiles>  (4) 
C[CH]S

>  <rmg_adjacency_list>  (4) 
multiplicity 2
1 S u0 p2 c0 {3,S} {8,S}
2 C u0 p0 c0 {3,S} {4,S} {5,S} {6,S}
3 C u1 p0 c0 {1,S} {2,S} {7,S}
4 H u0 p0 c0 {2,S}
5 H u0 p0 c0 {2,S}
6 H u0 p0 c0 {2,S}
7 H u0 p0 c0 {3,S}
8 H u0 p0 c0 {1,S}


>  <multiplicity>  (4) 
2

>  <reaction>  (4) 
rxn_1900

>  <type>  (4) 
r1

>  <role_mapnums>  (4) 
{}

>  <role_mapidx>  (4) 
{}

>  <ordered_mapped_smiles>  (4) 
[C:1]([C:2]([S:3][H:8])[H:7])([H:4])([H:5])[H:6]

>  <level_of_theory>  (4) 
wb97xd/def2tzvp

>  <lot_method>  (4) 
wb97xd

>  <lot_basis>  (4) 
def2tzvp

>  <spin_multiplicity>  (4) 
2.0

>  <optical_isomers>  (4) 
2.0

>  <modes>  (4) 
IdealGasTranslation(mass=(61.0112, 'amu')),         NonlinearRotor(             inertia = ([13.046, 92.7553, 102.244

>  <frequency_value>  (4) 
unknown

>  <frequency_units>  (4) 
unknown

>  <frequency_list>  (4) 
unknown

>  <arkane_path>  (4) 
/home/calvin/Dropbox/PersonalFolders/Calvin/HAb_Converged/rxn_1900/output/Species/rxn_1900_C[CH]S/arkane/output.py

>  <path_exists>  (4) 
True

>  <E0_value>  (4) 
-1253184.5981829516

>  <E0_units>  (4) 
kJ/mol

>  <thermo_class>  (4) 
NASA

>  <Cp0_value>  (4) 
33.257888

>  <Cp0_units>  (4) 
J/(mol*K)

>  <CpInf_value>  (4) 
182.918384

>  <CpInf_units>  (4) 
J/(mol*K)

>  <Tmin_value>  (4) 
10.0

>  <Tmin_units>  (4) 
K

>  <Tmax_value>  (4) 
3000.0

>  <Tmax_units>  (4) 
K

>  <polynomials>  (4) 
[{"name": "polynomial1", "class": "NASAPolynomial", "Tmin_value": 10.0, "Tmin_units": "K", "Tmax_value": 413.8010480726284, "Tmax_units": "K", "coeffs": [3.7950295729261647, 0.016457708367529925, 9.731711480509379e-06, -3.2015572359360355e-08, 2.0934508459004603e-11, -150723288.9505719, 9.662663267236853]}, {"name": "polynomial2", "class": "NASAPolynomial", "Tmin_value": 413.8010480726284, "Tmin_units": "K", "Tmax_value": 3000.0, "Tmax_units": "K", "coeffs": [3.171701388229353, 0.02248310275825266, -1.2109939387600553e-05, 3.1731034874071525e-09, -3.249234972610705e-13, -150723237.3638374, 12.119854918634292]}]

>  <H298_value>  (4) 
-299514.53540410154

>  <H298_units>  (4) 
kcal/mol

>  <S298_value>  (4) 
72.29191673058813

>  <S298_units>  (4) 
cal/(mol*K)

>  <Cp_T_value_list>  (4) 
[17.712657489437476, 20.710891785101634, 23.373717884324098, 25.72491502627314, 29.60811043312427, 32.57636509573052, 37.18717346712741, 39.514014084536406, 40.66360633897774]

>  <Cp_T_units>  (4) 
cal/(mol*K)

>  <T_list>  (4) 
[300.0, 400.0, 500.0, 600.0, 800.0, 1000.0, 1500.0, 2000.0, 2400.0]

>  <T_units>  (4) 
K

>  <yaml_path>  (4) 
/home/calvin/Dropbox/PersonalFolders/Calvin/HAb_Converged/rxn_1900/output/Species/rxn_1900_C[CH]S/rxn_1900_CCHS.yml

>  <frequencies_cm1>  (4) 
[128.26155180696, 206.51084952836, 328.47537579688, 383.06104210556, 719.5433227855599, 910.4180467402799, 999.9292003864799, 1062.5698404755199, 1120.95294966616, 1318.91440247112, 1398.79117571336, 1459.19317858808, 1469.92627664324, 2677.2315667084, 2962.1771225617995, 3023.7808478675192, 3086.80603913448, 3183.9601474418396]

>  <ZPE_kJmol>  (4) 
158.14937342870658

>  <E_elec_kJmol>  (4) 
-1253342.7475563802

>  <E0_minus_Eelec_plus_ZPE_kJmol>  (4) 
0.0

>  <rxn>  (4) 
rxn_1900

>  <species_type>  (4) 
p1

>  <species_folder>  (4) 
rxn_1900_C[CH]S

>  <frequencies_cm1_list>  (4) 
[128.26155180696, 206.51084952836, 328.47537579688, 383.06104210556, 719.5433227855599, 910.4180467402799, 999.9292003864799, 1062.5698404755199, 1120.95294966616, 1318.91440247112, 1398.79117571336, 1459.19317858808, 1469.92627664324, 2677.2315667084, 2962.1771225617995, 3023.7808478675192, 3086.80603913448, 3183.9601474418396]

>  <E0_kJmol>  (4) 
-1.25318e+06

>  <H298_kJmol>  (4) 
-1.25317e+06

$$$$

     RDKit          3D

 18 18  0  0  0  0  0  0  0  0999 V2000
    2.7512    0.0489   -0.5734 C   0  0  0  0  0  0  0  0  0  1  0  0
    1.4277   -0.4568   -0.0957 C   0  0  0  0  0  3  0  0  0  2  0  0
    0.5787   -1.2468   -0.9255 C   0  0  0  0  0  0  0  0  0  3  0  0
    0.9949   -1.6342   -2.2194 C   0  0  0  0  0  0  0  0  0  4  0  0
    0.1850   -2.4001   -3.0330 C   0  0  0  0  0  0  0  0  0  5  0  0
   -1.0677   -2.8151   -2.5986 C   0  0  0  0  0  0  0  0  0  6  0  0
   -1.4988   -2.4481   -1.3288 C   0  0  0  0  0  0  0  0  0  7  0  0
   -0.6986   -1.6827   -0.5072 C   0  0  0  0  0  0  0  0  0  8  0  0
    0.9655   -0.2084    1.5666 S   0  0  0  0  0  0  0  0  0  9  0  0
    3.1739    0.7873    0.1063 H   0  0  0  0  0  0  0  0  0 10  0  0
    3.4796   -0.7649   -0.6651 H   0  0  0  0  0  0  0  0  0 11  0  0
    2.6603    0.5178   -1.5558 H   0  0  0  0  0  0  0  0  0 12  0  0
    1.9693   -1.3375   -2.5829 H   0  0  0  0  0  0  0  0  0 13  0  0
    0.5357   -2.6808   -4.0185 H   0  0  0  0  0  0  0  0  0 14  0  0
   -1.6995   -3.4158   -3.2398 H   0  0  0  0  0  0  0  0  0 15  0  0
   -2.4742   -2.7614   -0.9778 H   0  0  0  0  0  0  0  0  0 16  0  0
   -1.0689   -1.4003    0.4702 H   0  0  0  0  0  0  0  0  0 17  0  0
    1.8478    0.7580    1.8433 H   0  0  0  0  0  0  0  0  0 18  0  0
  1 10  1  0
  1 11  1  0
  1 12  1  0
  1  2  1  0
  2  9  1  0
  2  3  1  0
  3  4  1  0
  3  8  1  0
  4  5  1  0
  4 13  1  0
  5 14  1  0
  5  6  1  0
  6 15  1  0
  6  7  1  0
  7  8  1  0
  7 16  1  0
  8 17  1  0
  9 18  1  0
M  RAD  1   2   2
M  END
>  <rmg_smiles>  (5) 
C[C]([C]1[CH][CH][CH][CH][CH]1)S

>  <rmg_adjacency_list>  (5) 
multiplicity 2
1  S u0 p2 c0 {4,S} {18,S}
2  C u0 p0 c0 {4,S} {10,S} {11,S} {12,S}
3  C u0 p0 c0 {4,S} {5,S} {6,S}
4  C u1 p0 c0 {1,S} {2,S} {3,S}
5  C u0 p0 c0 {3,S} {7,S} {13,S}
6  C u0 p0 c0 {3,S} {9,S} {17,S}
7  C u0 p0 c0 {5,S} {8,S} {14,S}
8  C u0 p0 c0 {7,S} {9,S} {15,S}
9  C u0 p0 c0 {6,S} {8,S} {16,S}
10 H u0 p0 c0 {2,S}
11 H u0 p0 c0 {2,S}
12 H u0 p0 c0 {2,S}
13 H u0 p0 c0 {5,S}
14 H u0 p0 c0 {7,S}
15 H u0 p0 c0 {8,S}
16 H u0 p0 c0 {9,S}
17 H u0 p0 c0 {6,S}
18 H u0 p0 c0 {1,S}


>  <multiplicity>  (5) 
2

>  <reaction>  (5) 
rxn_1900

>  <type>  (5) 
r2

>  <role_mapnums>  (5) 
{}

>  <role_mapidx>  (5) 
{}

>  <ordered_mapped_smiles>  (5) 
[C:1]([C:2]([CH:3]1[CH:4]([H:13])[CH:5]([H:14])[CH:6]([H:15])[CH:7]([H:16])[CH:8]1[H:17])[S:9][H:18])([H:10])([H:11])[H:12]

>  <level_of_theory>  (5) 
wb97xd/def2tzvp

>  <lot_method>  (5) 
wb97xd

>  <lot_basis>  (5) 
def2tzvp

>  <spin_multiplicity>  (5) 
2.0

>  <optical_isomers>  (5) 
2.0

>  <modes>  (5) 
IdealGasTranslation(mass=(137.042, 'amu')),         NonlinearRotor(             inertia = ([173.921, 537.489, 706.933

>  <frequency_value>  (5) 
unknown

>  <frequency_units>  (5) 
unknown

>  <frequency_list>  (5) 
unknown

>  <arkane_path>  (5) 
/home/calvin/Dropbox/PersonalFolders/Calvin/HAb_Converged/rxn_1900/output/Species/rxn_1900_C[C][c1ccccc1]S/arkane/output.py

>  <path_exists>  (5) 
True

>  <E0_value>  (5) 
-1859635.999590636

>  <E0_units>  (5) 
kJ/mol

>  <thermo_class>  (5) 
NASA

>  <Cp0_value>  (5) 
33.257888

>  <Cp0_units>  (5) 
J/(mol*K)

>  <CpInf_value>  (5) 
432.352544

>  <CpInf_units>  (5) 
J/(mol*K)

>  <Tmin_value>  (5) 
10.0

>  <Tmin_units>  (5) 
K

>  <Tmax_value>  (5) 
3000.0

>  <Tmax_units>  (5) 
K

>  <polynomials>  (5) 
[{"name": "polynomial1", "class": "NASAPolynomial", "Tmin_value": 10.0, "Tmin_units": "K", "Tmax_value": 772.0295036970148, "Tmax_units": "K", "coeffs": [3.5929422818437096, 0.04140702300232924, 5.219148012962769e-05, -1.0698478782351069e-07, 4.9895198024629436e-11, -223662546.9277343, 14.551201455978017]}, {"name": "polynomial2", "class": "NASAPolynomial", "Tmin_value": 772.0295036970148, "Tmin_units": "K", "Tmax_value": 3000.0, "Tmax_units": "K", "coeffs": [3.877316089975616, 0.06379654613973394, -3.7673795416994426e-05, 1.0652559346798017e-08, -1.1630174914439727e-12, -223663301.9865974, 8.647122048037788]}]

>  <H298_value>  (5) 
-444457.343646824

>  <H298_units>  (5) 
kcal/mol

>  <S298_value>  (5) 
97.03899921770716

>  <S298_units>  (5) 
cal/(mol*K)

>  <Cp_T_value_list>  (5) 
[36.22249054625582, 45.57991752423582, 53.83277869407935, 60.77631112890387, 71.10435972485959, 78.47400706539639, 89.16736136102854, 94.16859229239351, 96.70306532241592]

>  <Cp_T_units>  (5) 
cal/(mol*K)

>  <T_list>  (5) 
[300.0, 400.0, 500.0, 600.0, 800.0, 1000.0, 1500.0, 2000.0, 2400.0]

>  <T_units>  (5) 
K

>  <yaml_path>  (5) 
/home/calvin/Dropbox/PersonalFolders/Calvin/HAb_Converged/rxn_1900/output/Species/rxn_1900_C[C][c1ccccc1]S/rxn_1900_CCc1ccccc1S.yml

>  <frequencies_cm1>  (5) 
[47.334129810760004, 109.61768666315999, 132.75256020623996, 175.60941558835998, 206.74432702924, 311.73366558671995, 334.74493339404, 395.42161568156, 413.13843780715996, 485.55766499188, 517.1183295225999, 627.03129655452, 669.59287156788, 690.35176819024, 766.4173645798799, 829.1610094487199, 857.4461219818, 896.8763516892399, 944.6225006191999, 969.9273415234001, 981.2029314188399, 993.137751905, 1007.50348519444, 1043.7062318014798, 1085.7115810039197, 1096.829230237, 1165.47161549572, 1172.00211853504, 1199.9988176846798, 1307.7143494142, 1334.1797108374801, 1349.9119742055998, 1400.8993402065998, 1464.6867668440798, 1468.6490173737197, 1482.5477956614, 1507.35821362256, 1596.8625002834399, 1620.78707713832, 2710.3647708773997, 2988.74548876488, 3053.7346378333596, 3101.6387274256795, 3153.40206276784, 3159.3900739668798, 3171.11888489344, 3180.01849786816, 3186.80994634964]

>  <ZPE_kJmol>  (5) 
373.0291325178228

>  <E_elec_kJmol>  (5) 
-1860009.0287231535

>  <E0_minus_Eelec_plus_ZPE_kJmol>  (5) 
0.0

>  <rxn>  (5) 
rxn_1900

>  <species_type>  (5) 
r0

>  <species_folder>  (5) 
rxn_1900_C[C][c1ccccc1]S

>  <frequencies_cm1_list>  (5) 
[47.334129810760004, 109.61768666315999, 132.75256020623996, 175.60941558835998, 206.74432702924, 311.73366558671995, 334.74493339404, 395.42161568156, 413.13843780715996, 485.55766499188, 517.1183295225999, 627.03129655452, 669.59287156788, 690.35176819024, 766.4173645798799, 829.1610094487199, 857.4461219818, 896.8763516892399, 944.6225006191999, 969.9273415234001, 981.2029314188399, 993.137751905, 1007.50348519444, 1043.7062318014798, 1085.7115810039197, 1096.829230237, 1165.47161549572, 1172.00211853504, 1199.9988176846798, 1307.7143494142, 1334.1797108374801, 1349.9119742055998, 1400.8993402065998, 1464.6867668440798, 1468.6490173737197, 1482.5477956614, 1507.35821362256, 1596.8625002834399, 1620.78707713832, 2710.3647708773997, 2988.74548876488, 3053.7346378333596, 3101.6387274256795, 3153.40206276784, 3159.3900739668798, 3171.11888489344, 3180.01849786816, 3186.80994634964]

>  <E0_kJmol>  (5) 
-1.85964e+06

>  <H298_kJmol>  (5) 
-1.85961e+06

$$$$
