
     RDKit          3D

 12 11  0  0  0  0  0  0  0  0999 V2000
    0.6641   -0.3330   -1.4454 C   0  0  0  0  0  0  0  0  0  1  0  0
    0.2750   -0.8913   -0.2868 C   0  0  0  0  0  0  0  0  0  2  0  0
   -0.2433   -0.1839    0.8573 C   0  0  0  0  0  0  0  0  0  3  0  0
   -0.6731    1.2503    0.7576 C   0  0  0  0  0  0  0  0  0  4  0  0
    0.5801    0.7316   -1.6256 H   0  0  0  0  0  0  0  0  0  5  0  0
    1.0620   -0.9380   -2.2492 H   0  0  0  0  0  0  0  0  0  6  0  0
    0.3792   -1.9664   -0.1736 H   0  0  0  0  0  0  0  0  0  7  0  0
    0.6248   -0.0583    1.5010 H   0  0  0  0  0  0  0  0  0  8  0  0
   -0.8144   -0.7951    1.5530 H   0  0  0  0  0  0  0  0  0  9  0  0
   -1.5452    1.3521    0.1054 H   0  0  0  0  0  0  0  0  0 10  0  0
    0.1236    1.8780    0.3526 H   0  0  0  0  0  0  0  0  0 11  0  0
   -0.9410    1.6387    1.7405 H   0  0  0  0  0  0  0  0  0 12  0  0
  1  5  1  0
  1  6  1  0
  1  2  1  0
  2  7  1  0
  2  3  1  0
  3  4  1  0
  3  9  1  0
  3  8  1  0
  4 12  1  0
  4 10  1  0
  4 11  1  0
M  END
>  <rmg_smiles>  (1) 
[CH2][CH]CC

>  <rmg_adjacency_list>  (1) 
1  C u0 p0 c0 {2,S} {3,S} {5,S} {6,S}
2  C u0 p0 c0 {1,S} {7,S} {8,S} {9,S}
3  C u0 p0 c0 {1,S} {4,S} {10,S}
4  C u0 p0 c0 {3,S} {11,S} {12,S}
5  H u0 p0 c0 {1,S}
6  H u0 p0 c0 {1,S}
7  H u0 p0 c0 {2,S}
8  H u0 p0 c0 {2,S}
9  H u0 p0 c0 {2,S}
10 H u0 p0 c0 {3,S}
11 H u0 p0 c0 {4,S}
12 H u0 p0 c0 {4,S}


>  <multiplicity>  (1) 
1

>  <reaction>  (1) 
rxn_1071

>  <type>  (1) 
r1h

>  <role_mapnums>  (1) 
{"r1h_a": 3, "r1h_h": 8}

>  <role_mapidx>  (1) 
{"r1h_a": 2, "r1h_h": 7}

>  <ordered_mapped_smiles>  (1) 
[CH:1]([CH:2]([C:3]([C:4]([H:10])([H:11])[H:12])([H:8])[H:9])[H:7])([H:5])[H:6]

>  <mol_properties>  (1) 
{"2": {"label": "donator", "atom_type": "Cs"}, "7": {"label": "d_hydrogen", "atom_type": "H0"}}

>  <level_of_theory>  (1) 
wb97xd/def2tzvp

>  <lot_method>  (1) 
wb97xd

>  <lot_basis>  (1) 
def2tzvp

>  <spin_multiplicity>  (1) 
1.0

>  <optical_isomers>  (1) 
1.0

>  <modes>  (1) 
IdealGasTranslation(mass=(56.0626, 'amu')),         NonlinearRotor(             inertia = ([32.5109, 90.3514, 116.676

>  <frequency_value>  (1) 
unknown

>  <frequency_units>  (1) 
unknown

>  <frequency_list>  (1) 
unknown

>  <arkane_path>  (1) 
/home/calvin/Dropbox/PersonalFolders/Calvin/HAb_Converged/rxn_1071/output/Species/rxn_1071_C=CCC/arkane/output.py

>  <path_exists>  (1) 
True

>  <E0_value>  (1) 
-412516.9632903335

>  <E0_units>  (1) 
kJ/mol

>  <thermo_class>  (1) 
NASA

>  <Cp0_value>  (1) 
33.257888

>  <Cp0_units>  (1) 
J/(mol*K)

>  <CpInf_value>  (1) 
282.692048

>  <CpInf_units>  (1) 
J/(mol*K)

>  <Tmin_value>  (1) 
10.0

>  <Tmin_units>  (1) 
K

>  <Tmax_value>  (1) 
3000.0

>  <Tmax_units>  (1) 
K

>  <polynomials>  (1) 
[{"name": "polynomial1", "class": "NASAPolynomial", "Tmin_value": 10.0, "Tmin_units": "K", "Tmax_value": 488.655875950425, "Tmax_units": "K", "coeffs": [3.9518334489867755, 0.002738214948316711, 0.00010027883330171994, -1.6337813639818567e-07, 8.627420085348335e-11, -49614327.71326204, 8.65572399544736]}, {"name": "polynomial2", "class": "NASAPolynomial", "Tmin_value": 488.655875950425, "Tmin_units": "K", "Tmax_value": 3000.0, "Tmax_units": "K", "coeffs": [-1.0177998638327943, 0.04340046679206265, -2.4485281954071822e-05, 6.761443222838627e-09, -7.324004262046576e-13, -49613841.81296031, 29.07476490076061]}]

>  <H298_value>  (1) 
-98590.13440490302

>  <H298_units>  (1) 
kcal/mol

>  <S298_value>  (1) 
69.88440789589453

>  <S298_units>  (1) 
cal/(mol*K)

>  <Cp_T_value_list>  (1) 
[20.042973263550383, 25.523981497089775, 30.524522062075274, 34.9218382998611, 42.11657803113529, 47.54675281077259, 55.846682187635814, 60.04373230790421, 62.15783038221664]

>  <Cp_T_units>  (1) 
cal/(mol*K)

>  <T_list>  (1) 
[300.0, 400.0, 500.0, 600.0, 800.0, 1000.0, 1500.0, 2000.0, 2400.0]

>  <T_units>  (1) 
K

>  <yaml_path>  (1) 
/home/calvin/Dropbox/PersonalFolders/Calvin/HAb_Converged/rxn_1071/output/Species/rxn_1071_C=CCC/rxn_1071_C=CCC.yml

>  <frequencies_cm1>  (1) 
[165.89949834588, 270.68969432907994, 288.28291071892, 546.5845635307201, 562.94858954828, 802.8192537611999, 842.75764038232, 950.1229558605198, 1001.7077495843599, 1030.7756984439197, 1035.6375240504801, 1103.34599930568, 1142.2200032022, 1284.9434260930798, 1326.2895447048, 1372.0442678919599, 1403.3508539658399, 1441.4282875652402, 1464.212944857, 1485.72034287924, 1496.3092342426798, 1714.90597793424, 3000.2545561612, 3017.2984137254402, 3025.2847176525997, 3087.5545405343596, 3095.4996425496, 3112.8387804825998, 3128.2208275993994, 3206.66926789508]

>  <ZPE_kJmol>  (1) 
283.55462469418285

>  <E_elec_kJmol>  (1) 
-412800.5179150276

>  <E0_minus_Eelec_plus_ZPE_kJmol>  (1) 
0.0

>  <rxn>  (1) 
rxn_1071

>  <species_type>  (1) 
r1

>  <species_folder>  (1) 
rxn_1071_C=CCC

>  <frequencies_cm1_list>  (1) 
[165.89949834588, 270.68969432907994, 288.28291071892, 546.5845635307201, 562.94858954828, 802.8192537611999, 842.75764038232, 950.1229558605198, 1001.7077495843599, 1030.7756984439197, 1035.6375240504801, 1103.34599930568, 1142.2200032022, 1284.9434260930798, 1326.2895447048, 1372.0442678919599, 1403.3508539658399, 1441.4282875652402, 1464.212944857, 1485.72034287924, 1496.3092342426798, 1714.90597793424, 3000.2545561612, 3017.2984137254402, 3025.2847176525997, 3087.5545405343596, 3095.4996425496, 3112.8387804825998, 3128.2208275993994, 3206.66926789508]

>  <E0_kJmol>  (1) 
-412517

>  <H298_kJmol>  (1) 
-412501

$$$$

     RDKit          3D

 11 10  0  0  0  0  0  0  0  0999 V2000
    0.3687   -1.6993   -0.3006 C   0  0  0  0  0  0  0  0  0  1  0  0
    0.0161   -0.2565   -0.5704 C   0  0  0  0  0  0  0  0  0  2  0  0
   -0.4840    0.5693    0.5129 C   0  0  0  0  0  0  0  0  0  3  0  0
   -1.1504    0.0371    1.8985 S   0  0  0  0  0  0  0  0  0  4  0  0
    1.1582    0.6436   -1.6264 S   0  0  0  0  0  0  0  0  0  5  0  0
    1.2884   -1.7641    0.2830 H   0  0  0  0  0  0  0  0  0  6  0  0
   -0.4293   -2.1814    0.2641 H   0  0  0  0  0  0  0  0  0  7  0  0
    0.5181   -2.2337   -1.2400 H   0  0  0  0  0  0  0  0  0  8  0  0
   -0.4561    1.6415    0.3156 H   0  0  0  0  0  0  0  0  0  9  0  0
    1.0431   -0.1732   -2.6842 H   0  0  0  0  0  0  0  0  0 10  0  0
   -0.8709   -0.3563   -1.1961 H   0  0  0  0  0  0  0  0  0 11  0  0
  1  8  1  0
  1  7  1  0
  1  6  1  0
  1  2  1  0
  2 11  1  0
  2  5  1  0
  2  3  1  0
  3  9  1  0
  3  4  1  0
  5 10  1  0
M  END
>  <rmg_smiles>  (2) 
[S][CH]C(S)C

>  <rmg_adjacency_list>  (2) 
1  S u0 p2 c0 {3,S} {11,S}
2  S u0 p2 c0 {5,S}
3  C u0 p0 c0 {1,S} {4,S} {5,S} {6,S}
4  C u0 p0 c0 {3,S} {7,S} {8,S} {9,S}
5  C u0 p0 c0 {2,S} {3,S} {10,S}
6  H u0 p0 c0 {3,S}
7  H u0 p0 c0 {4,S}
8  H u0 p0 c0 {4,S}
9  H u0 p0 c0 {4,S}
10 H u0 p0 c0 {5,S}
11 H u0 p0 c0 {1,S}


>  <multiplicity>  (2) 
1

>  <reaction>  (2) 
rxn_1071

>  <type>  (2) 
r2h

>  <role_mapnums>  (2) 
{"r2h_a": 2, "r2h_h": 11}

>  <role_mapidx>  (2) 
{"r2h_a": 1, "r2h_h": 10}

>  <ordered_mapped_smiles>  (2) 
[C:1]([C:2]([CH:3]([SH:4])[H:9])([S:5][H:10])[H:11])([H:6])([H:7])[H:8]

>  <mol_properties>  (2) 
{"1": {"label": "acceptor", "atom_type": "Cs"}, "10": {"label": "a_hydrogen", "atom_type": "H0"}}

>  <level_of_theory>  (2) 
wb97xd/def2tzvp

>  <lot_method>  (2) 
wb97xd

>  <lot_basis>  (2) 
def2tzvp

>  <spin_multiplicity>  (2) 
1.0

>  <optical_isomers>  (2) 
2.0

>  <modes>  (2) 
IdealGasTranslation(mass=(105.991, 'amu')),         NonlinearRotor(             inertia = ([89.5708, 281.116, 334.996

>  <frequency_value>  (2) 
unknown

>  <frequency_units>  (2) 
unknown

>  <frequency_list>  (2) 
unknown

>  <arkane_path>  (2) 
/home/calvin/Dropbox/PersonalFolders/Calvin/HAb_Converged/rxn_1071/output/Species/rxn_1071_CC[C=S]S/arkane/output.py

>  <path_exists>  (2) 
True

>  <E0_value>  (2) 
-2400319.162228284

>  <E0_units>  (2) 
kJ/mol

>  <thermo_class>  (2) 
NASA

>  <Cp0_value>  (2) 
33.257888

>  <Cp0_units>  (2) 
J/(mol*K)

>  <CpInf_value>  (2) 
257.748632

>  <CpInf_units>  (2) 
J/(mol*K)

>  <Tmin_value>  (2) 
10.0

>  <Tmin_units>  (2) 
K

>  <Tmax_value>  (2) 
3000.0

>  <Tmax_units>  (2) 
K

>  <polynomials>  (2) 
[{"name": "polynomial1", "class": "NASAPolynomial", "Tmin_value": 10.0, "Tmin_units": "K", "Tmax_value": 213.3428365177288, "Tmax_units": "K", "coeffs": [3.8247536777855875, 0.017151661039531946, 0.0001271021828908449, -4.6488747379545374e-07, 5.523324360529866e-10, -288691715.4758794, 11.853392235392128]}, {"name": "polynomial2", "class": "NASAPolynomial", "Tmin_value": 213.3428365177288, "Tmin_units": "K", "Tmax_value": 3000.0, "Tmax_units": "K", "coeffs": [2.678743717831134, 0.03863806708059261, -2.3965105109095725e-05, 7.169663786122436e-09, -8.265503532835025e-13, -288691666.57653993, 15.611826052912015]}]

>  <H298_value>  (2) 
-573685.353787409

>  <H298_units>  (2) 
kcal/mol

>  <S298_value>  (2) 
82.23962747696542

>  <S298_units>  (2) 
cal/(mol*K)

>  <Cp_T_value_list>  (2) 
[24.443018020947996, 29.285964025660572, 33.4865152276792, 37.11241795857413, 42.89155301844894, 47.086498598547244, 53.11318487748382, 56.092802545780735, 57.751349697154865]

>  <Cp_T_units>  (2) 
cal/(mol*K)

>  <T_list>  (2) 
[300.0, 400.0, 500.0, 600.0, 800.0, 1000.0, 1500.0, 2000.0, 2400.0]

>  <T_units>  (2) 
K

>  <yaml_path>  (2) 
/home/calvin/Dropbox/PersonalFolders/Calvin/HAb_Converged/rxn_1071/output/Species/rxn_1071_CC[C=S]S/rxn_1071_CCC=SS.yml

>  <frequencies_cm1>  (2) 
[78.0776230884, 237.83116957288, 246.27756151647998, 261.803815325, 307.07098255444, 347.94327917908, 536.8403113616399, 647.2133664099999, 834.3799182919199, 854.93280535468, 904.74591686596, 1011.0331156489199, 1061.16897547024, 1102.98891606904, 1189.20391676164, 1225.11138299992, 1326.20714088096, 1372.0717358332397, 1412.7036879716798, 1470.8601866467598, 1475.4954017377597, 2690.43677947876, 3024.5224822820796, 3028.22378736956, 3082.0197503664394, 3103.4310105942004, 3117.84481278088]

>  <ZPE_kJmol>  (2) 
215.03144428280424

>  <E_elec_kJmol>  (2) 
-2400534.1936725667

>  <E0_minus_Eelec_plus_ZPE_kJmol>  (2) 
0.0

>  <rxn>  (2) 
rxn_1071

>  <species_type>  (2) 
p0

>  <species_folder>  (2) 
rxn_1071_CC[C=S]S

>  <frequencies_cm1_list>  (2) 
[78.0776230884, 237.83116957288, 246.27756151647998, 261.803815325, 307.07098255444, 347.94327917908, 536.8403113616399, 647.2133664099999, 834.3799182919199, 854.93280535468, 904.74591686596, 1011.0331156489199, 1061.16897547024, 1102.98891606904, 1189.20391676164, 1225.11138299992, 1326.20714088096, 1372.0717358332397, 1412.7036879716798, 1470.8601866467598, 1475.4954017377597, 2690.43677947876, 3024.5224822820796, 3028.22378736956, 3082.0197503664394, 3103.4310105942004, 3117.84481278088]

>  <E0_kJmol>  (2) 
-2.40032e+06

>  <H298_kJmol>  (2) 
-2.4003e+06

$$$$

     RDKit          3D

 22 20  0  0  0  0  0  0  0  0999 V2000
    0.9425   -1.4494    0.5948 C   0  0  0  0  0  0  0  0  0  1  0  0
    0.5900   -0.0066    0.3249 C   0  0  0  0  0  0  0  0  0  2  0  0
    0.0899    0.8192    1.4083 C   0  0  0  0  0  0  0  0  0  3  0  0
   -0.5765    0.2870    2.7939 S   0  0  0  0  0  0  0  0  0  4  0  0
    1.7320    0.8935   -0.7310 S   0  0  0  0  0  0  0  0  0  5  0  0
    1.8623   -1.5142    1.1784 H   0  0  0  0  0  0  0  0  0  6  0  0
    0.1446   -1.9315    1.1594 H   0  0  0  0  0  0  0  0  0  7  0  0
    1.0919   -1.9838   -0.3446 H   0  0  0  0  0  0  0  0  0  8  0  0
    0.1178    1.8914    1.2110 H   0  0  0  0  0  0  0  0  0  9  0  0
    1.6169    0.0767   -1.7888 H   0  0  0  0  0  0  0  0  0 10  0  0
   -0.6789   -0.4368   -3.5537 C   0  0  0  0  0  0  0  0  0 11  0  0
   -1.0679   -0.9951   -2.3950 C   0  0  0  0  0  0  0  0  0 12  0  0
   -1.5863   -0.2877   -1.2510 C   0  0  0  0  0  3  0  0  0 13  0  0
   -2.0161    1.1465   -1.3507 C   0  0  0  0  0  0  0  0  0 14  0  0
   -0.7628    0.6278   -3.7338 H   0  0  0  0  0  0  0  0  0 15  0  0
   -0.2809   -1.0418   -4.3574 H   0  0  0  0  0  0  0  0  0 16  0  0
   -0.9637   -2.0702   -2.2818 H   0  0  0  0  0  0  0  0  0 17  0  0
   -0.4568   -0.1243   -0.4135 H   0  0  0  0  0  0  0  0  0 18  0  0
   -2.1573   -0.8989   -0.5552 H   0  0  0  0  0  0  0  0  0 19  0  0
   -2.8881    1.2483   -2.0029 H   0  0  0  0  0  0  0  0  0 20  0  0
   -1.2193    1.7742   -1.7557 H   0  0  0  0  0  0  0  0  0 21  0  0
   -2.2840    1.5350   -0.3677 H   0  0  0  0  0  0  0  0  0 22  0  0
  1  7  1  0
  1  8  1  0
  1  6  1  0
  1  2  1  0
  2  3  1  0
  2 18  1  0
  2  5  1  0
  3  9  1  0
  3  4  1  0
  5 10  1  0
 11 12  1  0
 11 16  1  0
 11 15  1  0
 12 17  1  0
 12 13  1  0
 13 19  1  0
 13 14  1  0
 14 20  1  0
 14 22  1  0
 14 21  1  0
M  RAD  1  13   2
M  END
>  <rmg_smiles>  (3) 
[S][CH]C(S)C.[CH2][CH][CH]C

>  <rmg_adjacency_list>  (3) 
multiplicity 2
1  S u0 p2 c0 {3,S} {22,S}
2  S u0 p2 c0 {8,S}
3  C u0 p0 c0 {1,S} {4,S} {8,S} {10,S}
4  C u0 p0 c0 {3,S} {11,S} {12,S} {13,S}
5  C u0 p0 c0 {6,S} {14,S} {15,S} {16,S}
6  C u1 p0 c0 {5,S} {7,S} {17,S}
7  C u0 p0 c0 {6,S} {9,S} {18,S}
8  C u0 p0 c0 {2,S} {3,S} {19,S}
9  C u0 p0 c0 {7,S} {20,S} {21,S}
10 H u0 p0 c0 {3,S}
11 H u0 p0 c0 {4,S}
12 H u0 p0 c0 {4,S}
13 H u0 p0 c0 {4,S}
14 H u0 p0 c0 {5,S}
15 H u0 p0 c0 {5,S}
16 H u0 p0 c0 {5,S}
17 H u0 p0 c0 {6,S}
18 H u0 p0 c0 {7,S}
19 H u0 p0 c0 {8,S}
20 H u0 p0 c0 {9,S}
21 H u0 p0 c0 {9,S}
22 H u0 p0 c0 {1,S}


>  <multiplicity>  (3) 
2

>  <reaction>  (3) 
rxn_1071

>  <type>  (3) 
ts

>  <role_mapnums>  (3) 
{"*2": 18, "*1": 13, "*3": 2, "*0": 3, "*4": 12}

>  <role_mapidx>  (3) 
{"*2": 17, "*1": 12, "*3": 1, "*0": 2, "*4": 11}

>  <ordered_mapped_smiles>  (3) 
[C:1]([C:2]([CH:3]([SH:4])[H:9])([S:5][H:10])[H:18])([H:6])([H:7])[H:8].[CH:11]([CH:12]([C:13]([C:14]([H:20])([H:21])[H:22])[H:19])[H:17])([H:15])[H:16]

>  <mol_properties>  (3) 
{"1": {"label": "*3", "atom_type": "Cs"}, "2": {"label": "*0", "atom_type": "Cs"}, "11": {"label": "*4", "atom_type": "Cs"}, "12": {"label": "*1", "atom_type": "Cs"}, "17": {"label": "*2", "atom_type": "H0"}}

>  <level_of_theory>  (3) 
wb97xd/def2tzvp

>  <lot_method>  (3) 
wb97xd

>  <lot_basis>  (3) 
def2tzvp

>  <spin_multiplicity>  (3) 
2.0

>  <optical_isomers>  (3) 
2.0

>  <modes>  (3) 
IdealGasTranslation(mass=(161.046, 'amu')),         NonlinearRotor(             inertia = ([353.971, 730.538, 859.693

>  <frequency_value>  (3) 
-1608.21

>  <frequency_units>  (3) 
cm^-1

>  <frequency_list>  (3) 
unknown

>  <arkane_path>  (3) 
/home/calvin/Dropbox/PersonalFolders/Calvin/HAb_Converged/rxn_1071/output/rxns/TS0/arkane/output.py

>  <path_exists>  (3) 
True

>  <E0_value>  (3) 
-2811130.0

>  <E0_units>  (3) 
kJ/mol

>  <thermo_class>  (3) 
unknown

>  <Cp0_value>  (3) 
unknown

>  <Cp0_units>  (3) 
unknown

>  <CpInf_value>  (3) 
unknown

>  <CpInf_units>  (3) 
unknown

>  <Tmin_value>  (3) 
unknown

>  <Tmin_units>  (3) 
unknown

>  <Tmax_value>  (3) 
unknown

>  <Tmax_units>  (3) 
unknown

>  <polynomials>  (3) 
unknown

>  <H298_value>  (3) 
unknown

>  <H298_units>  (3) 
unknown

>  <S298_value>  (3) 
unknown

>  <S298_units>  (3) 
unknown

>  <Cp_T_value_list>  (3) 
unknown

>  <Cp_T_units>  (3) 
unknown

>  <T_list>  (3) 
unknown

>  <T_units>  (3) 
unknown

>  <yaml_path>  (3) 
unknown

>  <frequencies_cm1>  (3) 
unknown

>  <ZPE_kJmol>  (3) 
unknown

>  <E_elec_kJmol>  (3) 
unknown

>  <E0_minus_Eelec_plus_ZPE_kJmol>  (3) 
unknown

>  <rxn>  (3) 
unknown

>  <species_type>  (3) 
unknown

>  <species_folder>  (3) 
unknown

>  <frequencies_cm1_list>  (3) 
[]

>  <ts_imag_freq_cm1>  (3) 
-1627.7438

>  <ts_freq_out_path>  (3) 
/home/calvin/Dropbox/PersonalFolders/Calvin/HAb_Converged/rxn_1071/output/rxns/TS0/geometry/freq.out

>  <E0_kJmol>  (3) 
-2.81113e+06

>  <H298_kJmol>  (3) 
unknown

$$$$

     RDKit          3D

 11 10  0  0  0  0  0  0  0  0999 V2000
    2.0591    0.2533   -0.1061 C   0  0  0  0  0  0  0  0  0  1  0  0
    0.8045   -0.3111   -0.1535 C   0  0  0  0  0  0  0  0  0  2  0  0
   -0.3816    0.3942   -0.1885 C   0  0  0  0  0  3  0  0  0  3  0  0
   -1.7316   -0.2294   -0.2396 C   0  0  0  0  0  0  0  0  0  4  0  0
    2.9505   -0.3576   -0.0805 H   0  0  0  0  0  0  0  0  0  5  0  0
    2.1872    1.3290   -0.0933 H   0  0  0  0  0  0  0  0  0  6  0  0
    0.7385   -1.3970   -0.1643 H   0  0  0  0  0  0  0  0  0  7  0  0
   -0.3340    1.4795   -0.1783 H   0  0  0  0  0  0  0  0  0  8  0  0
   -1.6704   -1.3186   -0.2461 H   0  0  0  0  0  0  0  0  0  9  0  0
   -2.3404    0.0713    0.6191 H   0  0  0  0  0  0  0  0  0 10  0  0
   -2.2805    0.0851   -1.1331 H   0  0  0  0  0  0  0  0  0 11  0  0
  1  5  1  0
  1  6  1  0
  1  2  1  0
  2  7  1  0
  2  3  1  0
  3  4  1  0
  3  8  1  0
  4  9  1  0
  4 10  1  0
  4 11  1  0
M  RAD  1   3   2
M  END
>  <rmg_smiles>  (4) 
[CH2][CH][CH]C

>  <rmg_adjacency_list>  (4) 
multiplicity 2
1  C u0 p0 c0 {2,S} {5,S} {6,S} {7,S}
2  C u1 p0 c0 {1,S} {3,S} {8,S}
3  C u0 p0 c0 {2,S} {4,S} {9,S}
4  C u0 p0 c0 {3,S} {10,S} {11,S}
5  H u0 p0 c0 {1,S}
6  H u0 p0 c0 {1,S}
7  H u0 p0 c0 {1,S}
8  H u0 p0 c0 {2,S}
9  H u0 p0 c0 {3,S}
10 H u0 p0 c0 {4,S}
11 H u0 p0 c0 {4,S}


>  <multiplicity>  (4) 
2

>  <reaction>  (4) 
rxn_1071

>  <type>  (4) 
r1

>  <role_mapnums>  (4) 
{}

>  <role_mapidx>  (4) 
{}

>  <ordered_mapped_smiles>  (4) 
[CH:1]([CH:2]([C:3]([C:4]([H:9])([H:10])[H:11])[H:8])[H:7])([H:5])[H:6]

>  <level_of_theory>  (4) 
wb97xd/def2tzvp

>  <lot_method>  (4) 
wb97xd

>  <lot_basis>  (4) 
def2tzvp

>  <spin_multiplicity>  (4) 
2.0

>  <optical_isomers>  (4) 
1.0

>  <modes>  (4) 
IdealGasTranslation(mass=(55.0548, 'amu')),         NonlinearRotor(             inertia = ([13.1906, 125.273, 135.366

>  <frequency_value>  (4) 
unknown

>  <frequency_units>  (4) 
unknown

>  <frequency_list>  (4) 
unknown

>  <arkane_path>  (4) 
/home/calvin/Dropbox/PersonalFolders/Calvin/HAb_Converged/rxn_1071/output/Species/rxn_1071_C=C[CH]C/arkane/output.py

>  <path_exists>  (4) 
True

>  <E0_value>  (4) 
-410861.3152330692

>  <E0_units>  (4) 
kJ/mol

>  <thermo_class>  (4) 
NASA

>  <Cp0_value>  (4) 
33.257888

>  <Cp0_units>  (4) 
J/(mol*K)

>  <CpInf_value>  (4) 
257.748632

>  <CpInf_units>  (4) 
J/(mol*K)

>  <Tmin_value>  (4) 
10.0

>  <Tmin_units>  (4) 
K

>  <Tmax_value>  (4) 
3000.0

>  <Tmax_units>  (4) 
K

>  <polynomials>  (4) 
[{"name": "polynomial1", "class": "NASAPolynomial", "Tmin_value": 10.0, "Tmin_units": "K", "Tmax_value": 463.6393307218724, "Tmax_units": "K", "coeffs": [3.9040427866109826, 0.008185983411080414, 7.727991952880457e-05, -1.3744264793304484e-07, 7.688975074355223e-11, -49415200.70388584, 8.995587426851019]}, {"name": "polynomial2", "class": "NASAPolynomial", "Tmin_value": 463.6393307218724, "Tmin_units": "K", "Tmax_value": 3000.0, "Tmax_units": "K", "coeffs": [0.3179549217714686, 0.039124611253892716, -2.281509301051405e-05, 6.484032923156998e-09, -7.173482644836273e-13, -49414868.17391742, 23.539944648157388]}]

>  <H298_value>  (4) 
-98194.28584360852

>  <H298_units>  (4) 
kcal/mol

>  <S298_value>  (4) 
71.63337428638437

>  <S298_units>  (4) 
cal/(mol*K)

>  <Cp_T_value_list>  (4) 
[20.32293445175687, 25.26787004109902, 29.6931518167585, 33.55769976572619, 39.8275597158211, 44.50181601093726, 51.51425090015371, 55.048594012523054, 56.90855371865896]

>  <Cp_T_units>  (4) 
cal/(mol*K)

>  <T_list>  (4) 
[300.0, 400.0, 500.0, 600.0, 800.0, 1000.0, 1500.0, 2000.0, 2400.0]

>  <T_units>  (4) 
K

>  <yaml_path>  (4) 
/home/calvin/Dropbox/PersonalFolders/Calvin/HAb_Converged/rxn_1071/output/Species/rxn_1071_C=C[CH]C/rxn_1071_C=CCHC.yml

>  <frequencies_cm1>  (4) 
[145.86850216744, 217.17527773031998, 290.56274984515994, 508.82301125604, 544.53820190536, 739.89020028872, 798.30764440596, 881.33636391008, 988.4682018873999, 989.4158458615598, 1023.15334473872, 1138.3744914229999, 1188.9155033782, 1281.84641571376, 1335.3196304005999, 1400.47358711676, 1459.61893167792, 1463.37517264796, 1502.4895210306797, 1514.45180945812, 2991.0802637736797, 3039.3139686613595, 3086.1330745731198, 3108.55378164292, 3124.5401234678798, 3127.2937845812003, 3223.3011063401195]

>  <ZPE_kJmol>  (4) 
245.90815043438468

>  <E_elec_kJmol>  (4) 
-411107.2233835036

>  <E0_minus_Eelec_plus_ZPE_kJmol>  (4) 
0.0

>  <rxn>  (4) 
rxn_1071

>  <species_type>  (4) 
p1

>  <species_folder>  (4) 
rxn_1071_C=C[CH]C

>  <frequencies_cm1_list>  (4) 
[145.86850216744, 217.17527773031998, 290.56274984515994, 508.82301125604, 544.53820190536, 739.89020028872, 798.30764440596, 881.33636391008, 988.4682018873999, 989.4158458615598, 1023.15334473872, 1138.3744914229999, 1188.9155033782, 1281.84641571376, 1335.3196304005999, 1400.47358711676, 1459.61893167792, 1463.37517264796, 1502.4895210306797, 1514.45180945812, 2991.0802637736797, 3039.3139686613595, 3086.1330745731198, 3108.55378164292, 3124.5401234678798, 3127.2937845812003, 3223.3011063401195]

>  <E0_kJmol>  (4) 
-410861

>  <H298_kJmol>  (4) 
-410845

$$$$

     RDKit          3D

 10  9  0  0  0  0  0  0  0  0999 V2000
   -1.3354   -0.2069    0.0525 C   0  0  0  0  0  0  0  0  0  1  0  0
    0.0851    0.2624    0.0266 C   0  0  0  0  0  0  0  0  0  2  0  0
    0.4841    1.3876    0.7359 C   0  0  0  0  0  0  0  0  0  3  0  0
    2.0191    2.0303    0.8057 S   0  0  0  0  0  1  0  0  0  4  0  0
    1.1566   -0.6823   -0.9297 S   0  0  0  0  0  0  0  0  0  5  0  0
   -1.7589   -0.2174   -0.9545 H   0  0  0  0  0  0  0  0  0  6  0  0
   -1.4004   -1.2253    0.4427 H   0  0  0  0  0  0  0  0  0  7  0  0
   -1.9442    0.4442    0.6783 H   0  0  0  0  0  0  0  0  0  8  0  0
   -0.3073    1.8814    1.2951 H   0  0  0  0  0  0  0  0  0  9  0  0
    2.2383    0.0827   -0.6554 H   0  0  0  0  0  0  0  0  0 10  0  0
  1  8  1  0
  1  7  1  0
  1  6  1  0
  1  2  1  0
  2  5  1  0
  2  3  1  0
  3  9  1  0
  3  4  1  0
  5 10  1  0
M  RAD  1   4   2
M  END
>  <rmg_smiles>  (5) 
[S][CH][C](S)C

>  <rmg_adjacency_list>  (5) 
multiplicity 2
1  S u0 p2 c0 {4,S} {10,S}
2  S u1 p2 c0 {5,S}
3  C u0 p0 c0 {4,S} {6,S} {7,S} {8,S}
4  C u0 p0 c0 {1,S} {3,S} {5,S}
5  C u0 p0 c0 {2,S} {4,S} {9,S}
6  H u0 p0 c0 {3,S}
7  H u0 p0 c0 {3,S}
8  H u0 p0 c0 {3,S}
9  H u0 p0 c0 {5,S}
10 H u0 p0 c0 {1,S}


>  <multiplicity>  (5) 
2

>  <reaction>  (5) 
rxn_1071

>  <type>  (5) 
r2

>  <role_mapnums>  (5) 
{}

>  <role_mapidx>  (5) 
{}

>  <ordered_mapped_smiles>  (5) 
[C:1]([CH:2]([CH:3]([S:4])[H:9])[S:5][H:10])([H:6])([H:7])[H:8]

>  <level_of_theory>  (5) 
wb97xd/def2tzvp

>  <lot_method>  (5) 
wb97xd

>  <lot_basis>  (5) 
def2tzvp

>  <spin_multiplicity>  (5) 
2.0

>  <optical_isomers>  (5) 
1.0

>  <modes>  (5) 
IdealGasTranslation(mass=(104.983, 'amu')),         NonlinearRotor(             inertia = ([100.49, 235.605, 332.975

>  <frequency_value>  (5) 
unknown

>  <frequency_units>  (5) 
unknown

>  <frequency_list>  (5) 
unknown

>  <arkane_path>  (5) 
/home/calvin/Dropbox/PersonalFolders/Calvin/HAb_Converged/rxn_1071/output/Species/rxn_1071_C[C][C=S]S/arkane/output.py

>  <path_exists>  (5) 
True

>  <E0_value>  (5) 
-2398728.4301470886

>  <E0_units>  (5) 
kJ/mol

>  <thermo_class>  (5) 
NASA

>  <Cp0_value>  (5) 
33.257888

>  <Cp0_units>  (5) 
J/(mol*K)

>  <CpInf_value>  (5) 
232.805216

>  <CpInf_units>  (5) 
J/(mol*K)

>  <Tmin_value>  (5) 
10.0

>  <Tmin_units>  (5) 
K

>  <Tmax_value>  (5) 
3000.0

>  <Tmax_units>  (5) 
K

>  <polynomials>  (5) 
[{"name": "polynomial1", "class": "NASAPolynomial", "Tmin_value": 10.0, "Tmin_units": "K", "Tmax_value": 174.01726113942388, "Tmax_units": "K", "coeffs": [3.9082014614847895, 0.009872915439602193, 0.0002057584614251195, -8.728618456878904e-07, 1.263986644581055e-09, -288500402.10474426, 11.702702284946598]}, {"name": "polynomial2", "class": "NASAPolynomial", "Tmin_value": 174.01726113942388, "Tmin_units": "K", "Tmax_value": 3000.0, "Tmax_units": "K", "coeffs": [2.7483218276330854, 0.03653436950450788, -2.4060579297723113e-05, 7.590116446699495e-09, -9.145171304727525e-13, -288500361.7372306, 15.270275939437306]}]

>  <H298_value>  (5) 
-573305.3360940289

>  <H298_units>  (5) 
kcal/mol

>  <S298_value>  (5) 
81.10142956929253

>  <S298_units>  (5) 
cal/(mol*K)

>  <Cp_T_value_list>  (5) 
[23.331207482754937, 27.77067978154661, 31.580624091189616, 34.831911972780674, 39.92019668355091, 43.51527435205942, 48.488777974072114, 50.99847756573189, 52.51423316121439]

>  <Cp_T_units>  (5) 
cal/(mol*K)

>  <T_list>  (5) 
[300.0, 400.0, 500.0, 600.0, 800.0, 1000.0, 1500.0, 2000.0, 2400.0]

>  <T_units>  (5) 
K

>  <yaml_path>  (5) 
/home/calvin/Dropbox/PersonalFolders/Calvin/HAb_Converged/rxn_1071/output/Species/rxn_1071_C[C][C=S]S/rxn_1071_CCC=SS.yml

>  <frequencies_cm1>  (5) 
[87.10770878419999, 202.9537511326, 210.78211439739997, 327.18438255672, 442.76261247763995, 467.34641992324003, 480.1258796037599, 647.00048986508, 830.9944945291601, 879.7157553745599, 933.5735212393199, 1024.4992738614399, 1031.5035988878399, 1155.4389499432, 1323.3985438850798, 1397.47958151724, 1408.19207861644, 1459.59833072196, 1480.63877374244, 2543.7099041463202, 3014.00912775716, 3075.6540549747997, 3103.56148331528, 3112.8731154092]

>  <ZPE_kJmol>  (5) 
183.26857293928828

>  <E_elec_kJmol>  (5) 
-2398911.698720028

>  <E0_minus_Eelec_plus_ZPE_kJmol>  (5) 
0.0

>  <rxn>  (5) 
rxn_1071

>  <species_type>  (5) 
r0

>  <species_folder>  (5) 
rxn_1071_C[C][C=S]S

>  <frequencies_cm1_list>  (5) 
[87.10770878419999, 202.9537511326, 210.78211439739997, 327.18438255672, 442.76261247763995, 467.34641992324003, 480.1258796037599, 647.00048986508, 830.9944945291601, 879.7157553745599, 933.5735212393199, 1024.4992738614399, 1031.5035988878399, 1155.4389499432, 1323.3985438850798, 1397.47958151724, 1408.19207861644, 1459.59833072196, 1480.63877374244, 2543.7099041463202, 3014.00912775716, 3075.6540549747997, 3103.56148331528, 3112.8731154092]

>  <E0_kJmol>  (5) 
-2.39873e+06

>  <H298_kJmol>  (5) 
-2.39871e+06

$$$$
