
     RDKit          3D

 15 15  0  0  0  0  0  0  0  0999 V2000
   -2.2094    0.8318   -0.6542 C   0  0  0  0  0  0  0  0  0  1  0  0
   -0.8493    0.3360   -0.2489 C   0  0  0  0  0  0  0  0  0  2  0  0
    0.2107    0.3507   -1.1556 C   0  0  0  0  0  0  0  0  0  3  0  0
   -0.6183   -0.1705    1.0267 C   0  0  0  0  0  0  0  0  0  4  0  0
    1.4338   -0.1465   -0.7658 C   0  0  0  0  0  0  0  0  0  5  0  0
    1.6811   -0.6459    0.4942 C   0  0  0  0  0  0  0  0  0  6  0  0
    0.6264   -0.6567    1.3981 C   0  0  0  0  0  0  0  0  0  7  0  0
   -2.7843    1.1619    0.2112 H   0  0  0  0  0  0  0  0  0  8  0  0
   -2.1351    1.6650   -1.3537 H   0  0  0  0  0  0  0  0  0  9  0  0
   -2.7772    0.0385   -1.1465 H   0  0  0  0  0  0  0  0  0 10  0  0
    0.0709    0.7422   -2.1562 H   0  0  0  0  0  0  0  0  0 11  0  0
    2.2409   -0.1581   -1.4983 H   0  0  0  0  0  0  0  0  0 12  0  0
    2.6592   -1.0194    0.7663 H   0  0  0  0  0  0  0  0  0 13  0  0
    0.7784   -1.0433    2.3983 H   0  0  0  0  0  0  0  0  0 14  0  0
   -1.4294   -0.1816    1.7456 H   0  0  0  0  0  0  0  0  0 15  0  0
  1 10  1  0
  1  8  1  0
  1  9  1  0
  1  2  1  0
  2  3  1  0
  2  4  1  0
  3 11  1  0
  3  5  1  0
  4  7  1  0
  4 15  1  0
  5 12  1  0
  5  6  1  0
  6 13  1  0
  6  7  1  0
  7 14  1  0
M  END
>  <rmg_smiles>  (1) 
CC1[CH][CH][CH][CH][CH]1

>  <rmg_adjacency_list>  (1) 
1  C u0 p0 c0 {2,S} {8,S} {9,S} {10,S}
2  C u0 p0 c0 {1,S} {3,S} {4,S}
3  C u0 p0 c0 {2,S} {5,S} {11,S}
4  C u0 p0 c0 {2,S} {7,S} {15,S}
5  C u0 p0 c0 {3,S} {6,S} {12,S}
6  C u0 p0 c0 {5,S} {7,S} {13,S}
7  C u0 p0 c0 {4,S} {6,S} {14,S}
8  H u0 p0 c0 {1,S}
9  H u0 p0 c0 {1,S}
10 H u0 p0 c0 {1,S}
11 H u0 p0 c0 {3,S}
12 H u0 p0 c0 {5,S}
13 H u0 p0 c0 {6,S}
14 H u0 p0 c0 {7,S}
15 H u0 p0 c0 {4,S}


>  <multiplicity>  (1) 
1

>  <reaction>  (1) 
rxn_259

>  <type>  (1) 
r1h

>  <role_mapnums>  (1) 
{"r1h_a": 5, "r1h_h": 12}

>  <role_mapidx>  (1) 
{"r1h_a": 4, "r1h_h": 11}

>  <ordered_mapped_smiles>  (1) 
[C:1]([CH:2]1[CH:3]([H:11])[CH:5]([H:12])[CH:6]([H:13])[CH:7]([H:14])[CH:4]1[H:15])([H:8])([H:9])[H:10]

>  <mol_properties>  (1) 
{"4": {"label": "donator", "atom_type": "Cs"}, "11": {"label": "d_hydrogen", "atom_type": "H0"}}

>  <level_of_theory>  (1) 
wb97xd/def2tzvp

>  <lot_method>  (1) 
wb97xd

>  <lot_basis>  (1) 
def2tzvp

>  <spin_multiplicity>  (1) 
1.0

>  <optical_isomers>  (1) 
1.0

>  <modes>  (1) 
IdealGasTranslation(mass=(92.0626, 'amu')),         NonlinearRotor(             inertia = ([90.1823, 198.896, 285.945

>  <frequency_value>  (1) 
unknown

>  <frequency_units>  (1) 
unknown

>  <frequency_list>  (1) 
unknown

>  <arkane_path>  (1) 
/home/calvin/Dropbox/PersonalFolders/Calvin/HAb_Converged/rxn_259/output/Species/rxn_259_Cc1ccccc1/arkane/output.py

>  <path_exists>  (1) 
True

>  <E0_value>  (1) 
-712667.4186954657

>  <E0_units>  (1) 
kJ/mol

>  <thermo_class>  (1) 
NASA

>  <Cp0_value>  (1) 
33.257888

>  <Cp0_units>  (1) 
J/(mol*K)

>  <CpInf_value>  (1) 
357.522296

>  <CpInf_units>  (1) 
J/(mol*K)

>  <Tmin_value>  (1) 
10.0

>  <Tmin_units>  (1) 
K

>  <Tmax_value>  (1) 
3000.0

>  <Tmax_units>  (1) 
K

>  <polynomials>  (1) 
[{"name": "polynomial1", "class": "NASAPolynomial", "Tmin_value": 10.0, "Tmin_units": "K", "Tmax_value": 551.6404107050422, "Tmax_units": "K", "coeffs": [3.9807877443631, 0.00035561988080208296, 0.00017407945539970812, -2.980514466570864e-07, 1.625970399361135e-10, -85714089.32981402, 11.957872909957874]}, {"name": "polynomial2", "class": "NASAPolynomial", "Tmin_value": 551.6404107050422, "Tmin_units": "K", "Tmax_value": 3000.0, "Tmax_units": "K", "coeffs": [-2.4640727136101863, 0.06292197006651765, -3.910390273638268e-05, 1.1617229825521433e-08, -1.3239176957032157e-12, -85713619.20098881, 37.03314537917204]}]

>  <H298_value>  (1) 
-170327.1711088113

>  <H298_units>  (1) 
kcal/mol

>  <S298_value>  (1) 
79.81344471114225

>  <S298_units>  (1) 
cal/(mol*K)

>  <Cp_T_value_list>  (1) 
[25.881917309628086, 33.90758568479932, 40.90534559010948, 46.79761268221675, 56.14404960423432, 62.889733704082204, 72.41563025517803, 76.9434671339039, 79.45318395865998]

>  <Cp_T_units>  (1) 
cal/(mol*K)

>  <T_list>  (1) 
[300.0, 400.0, 500.0, 600.0, 800.0, 1000.0, 1500.0, 2000.0, 2400.0]

>  <T_units>  (1) 
K

>  <yaml_path>  (1) 
/home/calvin/Dropbox/PersonalFolders/Calvin/HAb_Converged/rxn_259/output/Species/rxn_259_Cc1ccccc1/rxn_259_Cc1ccccc1.yml

>  <frequencies_cm1>  (1) 
[32.67311615255999, 208.88682644908, 346.6454189536, 414.1066827372799, 475.62800421915995, 527.95443235756, 633.69913930024, 711.73556047672, 745.6928028841199, 800.1617304423601, 861.8684605278798, 915.5202168330399, 979.4449831769199, 991.60641417864, 997.6768292015198, 1015.82627140228, 1052.7363174972797, 1058.5389200926797, 1109.8078324918, 1173.8974064833599, 1201.1112693065197, 1232.0058362611999, 1316.04400260736, 1349.7815014845198, 1404.03755249784, 1462.1391152903598, 1476.8481978457999, 1495.6225357106798, 1530.4999541509599, 1640.12450779944, 1663.1975784746398, 3015.0391755551595, 3079.01201079628, 3101.631860440359, 3145.0655425893597, 3146.5282104625194, 3159.5205466879593, 3168.9008486350795, 3181.02107772488]

>  <ZPE_kJmol>  (1) 
333.8912309447283

>  <E_elec_kJmol>  (1) 
-713001.3099264104

>  <E0_minus_Eelec_plus_ZPE_kJmol>  (1) 
0.0

>  <rxn>  (1) 
rxn_259

>  <species_type>  (1) 
r0

>  <species_folder>  (1) 
rxn_259_Cc1ccccc1

>  <frequencies_cm1_list>  (1) 
[32.67311615255999, 208.88682644908, 346.6454189536, 414.1066827372799, 475.62800421915995, 527.95443235756, 633.69913930024, 711.73556047672, 745.6928028841199, 800.1617304423601, 861.8684605278798, 915.5202168330399, 979.4449831769199, 991.60641417864, 997.6768292015198, 1015.82627140228, 1052.7363174972797, 1058.5389200926797, 1109.8078324918, 1173.8974064833599, 1201.1112693065197, 1232.0058362611999, 1316.04400260736, 1349.7815014845198, 1404.03755249784, 1462.1391152903598, 1476.8481978457999, 1495.6225357106798, 1530.4999541509599, 1640.12450779944, 1663.1975784746398, 3015.0391755551595, 3079.01201079628, 3101.631860440359, 3145.0655425893597, 3146.5282104625194, 3159.5205466879593, 3168.9008486350795, 3181.02107772488]

>  <E0_kJmol>  (1) 
-712667

>  <H298_kJmol>  (1) 
-712649

$$$$

     RDKit          3D

  3  2  0  0  0  0  0  0  0  0999 V2000
    0.0434   -0.0328   -0.0607 O   0  0  0  0  0  0  0  0  0  1  0  0
   -0.7166   -0.2501    0.4956 H   0  0  0  0  0  0  0  0  0  2  0  0
    0.2622    0.8387    0.2955 H   0  0  0  0  0  0  0  0  0  3  0  0
  1  2  1  0
  1  3  1  0
M  END
>  <rmg_smiles>  (2) 
O

>  <rmg_adjacency_list>  (2) 
1 O u0 p2 c0 {2,S} {3,S}
2 H u0 p0 c0 {1,S}
3 H u0 p0 c0 {1,S}


>  <multiplicity>  (2) 
1

>  <reaction>  (2) 
rxn_259

>  <type>  (2) 
r2h

>  <role_mapnums>  (2) 
{"r2h_a": 1, "r2h_h": 2}

>  <role_mapidx>  (2) 
{"r2h_a": 0, "r2h_h": 1}

>  <ordered_mapped_smiles>  (2) 
[O:1]([H:2])[H:3]

>  <mol_properties>  (2) 
{"0": {"label": "acceptor", "atom_type": "O2s"}, "1": {"label": "a_hydrogen", "atom_type": "H0"}}

>  <level_of_theory>  (2) 
wb97xd/def2tzvp

>  <lot_method>  (2) 
wb97xd

>  <lot_basis>  (2) 
def2tzvp

>  <spin_multiplicity>  (2) 
1.0

>  <optical_isomers>  (2) 
1.0

>  <modes>  (2) 
IdealGasTranslation(mass=(18.0106, 'amu')),         NonlinearRotor(             inertia = ([0.602336, 1.17002, 1.77235

>  <frequency_value>  (2) 
unknown

>  <frequency_units>  (2) 
unknown

>  <frequency_list>  (2) 
unknown

>  <arkane_path>  (2) 
/home/calvin/Dropbox/PersonalFolders/Calvin/HAb_Converged/rxn_259/output/Species/rxn_259_O/arkane/output.py

>  <path_exists>  (2) 
True

>  <E0_value>  (2) 
-200631.8610370755

>  <E0_units>  (2) 
kJ/mol

>  <thermo_class>  (2) 
NASA

>  <Cp0_value>  (2) 
33.257888

>  <Cp0_units>  (2) 
J/(mol*K)

>  <CpInf_value>  (2) 
58.201304

>  <CpInf_units>  (2) 
J/(mol*K)

>  <Tmin_value>  (2) 
10.0

>  <Tmin_units>  (2) 
K

>  <Tmax_value>  (2) 
3000.0

>  <Tmax_units>  (2) 
K

>  <polynomials>  (2) 
[{"name": "polynomial1", "class": "NASAPolynomial", "Tmin_value": 10.0, "Tmin_units": "K", "Tmax_value": 775.5892611220346, "Tmax_units": "K", "coeffs": [4.0046377604896435, -0.0002349968237338005, 9.297667881726044e-07, 1.2709781190462173e-09, -1.099134861879461e-12, -24130439.408818465, -0.1238602766167563]}, {"name": "polynomial2", "class": "NASAPolynomial", "Tmin_value": 775.5892611220346, "Tmin_units": "K", "Tmax_value": 3000.0, "Tmax_units": "K", "coeffs": [3.5165154437069566, 0.001116128343838406, 5.723157882575294e-07, -3.60634757198529e-10, 5.17568046911035e-14, -24130328.613551635, 2.333142915795675]}]

>  <H298_value>  (2) 
-47949.795051442925

>  <H298_units>  (2) 
kcal/mol

>  <S298_value>  (2) 
45.0524244619197

>  <S298_units>  (2) 
cal/(mol*K)

>  <Cp_T_value_list>  (2) 
[8.034735208537397, 8.172598301648419, 8.365657236320523, 8.605476742654242, 9.165502751993213, 9.72952523102407, 10.975927733177299, 11.88561344031021, 12.367407656630238]

>  <Cp_T_units>  (2) 
cal/(mol*K)

>  <T_list>  (2) 
[300.0, 400.0, 500.0, 600.0, 800.0, 1000.0, 1500.0, 2000.0, 2400.0]

>  <T_units>  (2) 
K

>  <yaml_path>  (2) 
/home/calvin/Dropbox/PersonalFolders/Calvin/HAb_Converged/rxn_259/output/Species/rxn_259_O/rxn_259_O.yml

>  <frequencies_cm1>  (2) 
[1605.0960156821197, 3829.7657818612397, 3938.29848484384]

>  <ZPE_kJmol>  (2) 
56.06396479185102

>  <E_elec_kJmol>  (2) 
-200687.92500186732

>  <E0_minus_Eelec_plus_ZPE_kJmol>  (2) 
0.0

>  <rxn>  (2) 
rxn_259

>  <species_type>  (2) 
p0

>  <species_folder>  (2) 
rxn_259_O

>  <frequencies_cm1_list>  (2) 
[1605.0960156821197, 3829.7657818612397, 3938.29848484384]

>  <E0_kJmol>  (2) 
-200632

>  <H298_kJmol>  (2) 
-200622

$$$$

     RDKit          3D

 17 16  0  0  0  0  0  0  0  0999 V2000
    3.1089   -0.0059   -2.0067 O   0  0  0  0  0  1  0  0  0  1  0  0
   -2.4386    0.7010   -0.3416 C   0  0  0  0  0  0  0  0  0  2  0  0
   -1.0784    0.2052    0.0637 C   0  0  0  0  0  0  0  0  0  3  0  0
   -0.0185    0.2199   -0.8430 C   0  0  0  0  0  0  0  0  0  4  0  0
   -0.8475   -0.3013    1.3393 C   0  0  0  0  0  0  0  0  0  5  0  0
    1.2046   -0.2773   -0.4532 C   0  0  0  0  0  0  0  0  0  6  0  0
    1.4520   -0.7767    0.8067 C   0  0  0  0  0  0  0  0  0  7  0  0
    0.3973   -0.7876    1.7107 C   0  0  0  0  0  0  0  0  0  8  0  0
   -3.0134    1.0311    0.5238 H   0  0  0  0  0  0  0  0  0  9  0  0
   -2.3642    1.5342   -1.0411 H   0  0  0  0  0  0  0  0  0 10  0  0
   -3.0063   -0.0924   -0.8339 H   0  0  0  0  0  0  0  0  0 11  0  0
   -0.1582    0.6114   -1.8436 H   0  0  0  0  0  0  0  0  0 12  0  0
    2.1138   -0.2904   -1.2783 H   0  0  0  0  0  0  0  0  0 13  0  0
    2.4301   -1.1502    1.0788 H   0  0  0  0  0  0  0  0  0 14  0  0
    0.5493   -1.1741    2.7108 H   0  0  0  0  0  0  0  0  0 15  0  0
   -1.6586   -0.3124    2.0582 H   0  0  0  0  0  0  0  0  0 16  0  0
    3.3277    0.8657   -1.6506 H   0  0  0  0  0  0  0  0  0 17  0  0
  1 17  1  0
  2 10  1  0
  2  9  1  0
  2 11  1  0
  2  3  1  0
  3  4  1  0
  3  5  1  0
  4 12  1  0
  4  6  1  0
  5 16  1  0
  5  8  1  0
  6 13  1  0
  6  7  1  0
  7 14  1  0
  7  8  1  0
  8 15  1  0
M  RAD  1   1   2
M  END
>  <rmg_smiles>  (3) 
CC1[CH][CH][CH][CH][CH]1.[OH]

>  <rmg_adjacency_list>  (3) 
multiplicity 2
1  O u1 p2 c0 {17,S}
2  C u0 p0 c0 {3,S} {9,S} {10,S} {11,S}
3  C u0 p0 c0 {2,S} {4,S} {5,S}
4  C u0 p0 c0 {3,S} {6,S} {12,S}
5  C u0 p0 c0 {3,S} {8,S} {16,S}
6  C u0 p0 c0 {4,S} {7,S} {13,S}
7  C u0 p0 c0 {6,S} {8,S} {14,S}
8  C u0 p0 c0 {5,S} {7,S} {15,S}
9  H u0 p0 c0 {2,S}
10 H u0 p0 c0 {2,S}
11 H u0 p0 c0 {2,S}
12 H u0 p0 c0 {4,S}
13 H u0 p0 c0 {6,S}
14 H u0 p0 c0 {7,S}
15 H u0 p0 c0 {8,S}
16 H u0 p0 c0 {5,S}
17 H u0 p0 c0 {1,S}


>  <multiplicity>  (3) 
2

>  <reaction>  (3) 
rxn_259

>  <type>  (3) 
ts

>  <role_mapnums>  (3) 
{"*2": 13, "*1": 6, "*3": 1, "*0": 4, "*4": 17}

>  <role_mapidx>  (3) 
{"*2": 12, "*1": 5, "*3": 0, "*0": 3, "*4": 16}

>  <ordered_mapped_smiles>  (3) 
[O:1][H:17].[C:2]([CH:3]1[CH:4]([H:12])[CH:6]([H:13])[CH:7]([H:14])[CH:8]([H:15])[CH:5]1[H:16])([H:9])([H:10])[H:11]

>  <mol_properties>  (3) 
{"0": {"label": "*3", "atom_type": "O2s"}, "3": {"label": "*0", "atom_type": "Cs"}, "5": {"label": "*1", "atom_type": "Cs"}, "12": {"label": "*2", "atom_type": "H0"}, "16": {"label": "*4", "atom_type": "H0"}}

>  <level_of_theory>  (3) 
wb97xd/def2tzvp

>  <lot_method>  (3) 
wb97xd

>  <lot_basis>  (3) 
def2tzvp

>  <spin_multiplicity>  (3) 
2.0

>  <optical_isomers>  (3) 
2.0

>  <modes>  (3) 
IdealGasTranslation(mass=(109.065, 'amu')),         NonlinearRotor(             inertia = ([152.242, 376.811, 523.324

>  <frequency_value>  (3) 
-1315.69

>  <frequency_units>  (3) 
cm^-1

>  <frequency_list>  (3) 
unknown

>  <arkane_path>  (3) 
/home/calvin/Dropbox/PersonalFolders/Calvin/HAb_Converged/rxn_259/output/rxns/TS0/arkane/output.py

>  <path_exists>  (3) 
True

>  <E0_value>  (3) 
-911492.0

>  <E0_units>  (3) 
kJ/mol

>  <thermo_class>  (3) 
unknown

>  <Cp0_value>  (3) 
unknown

>  <Cp0_units>  (3) 
unknown

>  <CpInf_value>  (3) 
unknown

>  <CpInf_units>  (3) 
unknown

>  <Tmin_value>  (3) 
unknown

>  <Tmin_units>  (3) 
unknown

>  <Tmax_value>  (3) 
unknown

>  <Tmax_units>  (3) 
unknown

>  <polynomials>  (3) 
unknown

>  <H298_value>  (3) 
unknown

>  <H298_units>  (3) 
unknown

>  <S298_value>  (3) 
unknown

>  <S298_units>  (3) 
unknown

>  <Cp_T_value_list>  (3) 
unknown

>  <Cp_T_units>  (3) 
unknown

>  <T_list>  (3) 
unknown

>  <T_units>  (3) 
unknown

>  <yaml_path>  (3) 
unknown

>  <frequencies_cm1>  (3) 
unknown

>  <ZPE_kJmol>  (3) 
unknown

>  <E_elec_kJmol>  (3) 
unknown

>  <E0_minus_Eelec_plus_ZPE_kJmol>  (3) 
unknown

>  <rxn>  (3) 
unknown

>  <species_type>  (3) 
unknown

>  <species_folder>  (3) 
unknown

>  <frequencies_cm1_list>  (3) 
[]

>  <ts_imag_freq_cm1>  (3) 
-1331.666

>  <ts_freq_out_path>  (3) 
/home/calvin/Dropbox/PersonalFolders/Calvin/HAb_Converged/rxn_259/output/rxns/TS0/geometry/freq.out

>  <E0_kJmol>  (3) 
-911492

>  <H298_kJmol>  (3) 
unknown

$$$$

     RDKit          3D

 14 14  0  0  0  0  0  0  0  0999 V2000
   -2.0198   -0.4831   -0.2544 C   0  0  0  0  0  0  0  0  0  1  0  0
   -0.5930   -0.0384   -0.0892 C   0  0  0  0  0  0  0  0  0  2  0  0
    0.2136   -0.6044    0.9057 C   0  0  0  0  0  0  0  0  0  3  0  0
    1.5090   -0.1783    0.9885 C   0  0  0  0  0  3  0  0  0  4  0  0
    2.1020    0.7599    0.1876 C   0  0  0  0  0  0  0  0  0  5  0  0
    1.2904    1.3193   -0.7968 C   0  0  0  0  0  0  0  0  0  6  0  0
   -0.0334    0.9223   -0.9266 C   0  0  0  0  0  0  0  0  0  7  0  0
   -2.5042   -0.6236    0.7128 H   0  0  0  0  0  0  0  0  0  8  0  0
   -2.5978    0.2454   -0.8229 H   0  0  0  0  0  0  0  0  0  9  0  0
   -2.0679   -1.4358   -0.7874 H   0  0  0  0  0  0  0  0  0 10  0  0
   -0.1900   -1.3517    1.5798 H   0  0  0  0  0  0  0  0  0 11  0  0
    3.1355    1.0599    0.3036 H   0  0  0  0  0  0  0  0  0 12  0  0
    1.6958    2.0714   -1.4633 H   0  0  0  0  0  0  0  0  0 13  0  0
   -0.6482    1.3723   -1.6972 H   0  0  0  0  0  0  0  0  0 14  0  0
  1 10  1  0
  1  8  1  0
  1  9  1  0
  1  2  1  0
  2  7  1  0
  2  3  1  0
  3  4  1  0
  3 11  1  0
  4  5  1  0
  5 12  1  0
  5  6  1  0
  6 13  1  0
  6  7  1  0
  7 14  1  0
M  RAD  1   4   2
M  END
>  <rmg_smiles>  (4) 
CC1[CH][C][CH][CH][CH]1

>  <rmg_adjacency_list>  (4) 
multiplicity 2
1  C u0 p0 c0 {2,S} {8,S} {9,S} {10,S}
2  C u0 p0 c0 {1,S} {3,S} {5,S}
3  C u0 p0 c0 {2,S} {4,S} {12,S}
4  C u0 p0 c0 {3,S} {6,S} {11,S}
5  C u0 p0 c0 {2,S} {7,S} {13,S}
6  C u0 p0 c0 {4,S} {7,S} {14,S}
7  C u1 p1 c0 {5,S} {6,S}
8  H u0 p0 c0 {1,S}
9  H u0 p0 c0 {1,S}
10 H u0 p0 c0 {1,S}
11 H u0 p0 c0 {4,S}
12 H u0 p0 c0 {3,S}
13 H u0 p0 c0 {5,S}
14 H u0 p0 c0 {6,S}


>  <multiplicity>  (4) 
2

>  <reaction>  (4) 
rxn_259

>  <type>  (4) 
r1

>  <role_mapnums>  (4) 
{}

>  <role_mapidx>  (4) 
{}

>  <ordered_mapped_smiles>  (4) 
[C:1]([CH:2]1[CH:3]([H:11])[CH:4][CH:5]([H:12])[CH:6]([H:13])[CH:7]1[H:14])([H:8])([H:9])[H:10]

>  <level_of_theory>  (4) 
wb97xd/def2tzvp

>  <lot_method>  (4) 
wb97xd

>  <lot_basis>  (4) 
def2tzvp

>  <spin_multiplicity>  (4) 
2.0

>  <optical_isomers>  (4) 
2.0

>  <modes>  (4) 
IdealGasTranslation(mass=(91.0548, 'amu')),         NonlinearRotor(             inertia = ([84.0639, 196.987, 277.917

>  <frequency_value>  (4) 
unknown

>  <frequency_units>  (4) 
unknown

>  <frequency_list>  (4) 
unknown

>  <arkane_path>  (4) 
/home/calvin/Dropbox/PersonalFolders/Calvin/HAb_Converged/rxn_259/output/Species/rxn_259_Cc1c[c]ccc1/arkane/output.py

>  <path_exists>  (4) 
True

>  <E0_value>  (4) 
-710888.3062834864

>  <E0_units>  (4) 
kJ/mol

>  <thermo_class>  (4) 
NASA

>  <Cp0_value>  (4) 
33.257888

>  <Cp0_units>  (4) 
J/(mol*K)

>  <CpInf_value>  (4) 
332.57888

>  <CpInf_units>  (4) 
J/(mol*K)

>  <Tmin_value>  (4) 
10.0

>  <Tmin_units>  (4) 
K

>  <Tmax_value>  (4) 
3000.0

>  <Tmax_units>  (4) 
K

>  <polynomials>  (4) 
[{"name": "polynomial1", "class": "NASAPolynomial", "Tmin_value": 10.0, "Tmin_units": "K", "Tmax_value": 430.8407105796925, "Tmax_units": "K", "coeffs": [3.950501012668528, 0.003116399187062866, 0.00016197401921780666, -2.997051322065004e-07, 1.7957327782162483e-10, -85500112.69263943, 13.875224473168723]}, {"name": "polynomial2", "class": "NASAPolynomial", "Tmin_value": 430.8407105796925, "Tmin_units": "K", "Tmax_value": 3000.0, "Tmax_units": "K", "coeffs": [-2.2909370894465715, 0.061054711618574196, -3.9713151503927714e-05, 1.2333366020404323e-08, -1.4645554898064376e-12, -85499574.80263674, 38.73205162645326]}]

>  <H298_value>  (4) 
-169901.93250537876

>  <H298_units>  (4) 
kcal/mol

>  <S298_value>  (4) 
83.8850195559198

>  <S298_units>  (4) 
cal/(mol*K)

>  <Cp_T_value_list>  (4) 
[25.487090817186075, 32.84624058452445, 39.263756388174336, 44.750610658849936, 53.358912418047694, 59.45609286700315, 67.8578112815732, 71.93671726886951, 74.31880817444016]

>  <Cp_T_units>  (4) 
cal/(mol*K)

>  <T_list>  (4) 
[300.0, 400.0, 500.0, 600.0, 800.0, 1000.0, 1500.0, 2000.0, 2400.0]

>  <T_units>  (4) 
K

>  <yaml_path>  (4) 
/home/calvin/Dropbox/PersonalFolders/Calvin/HAb_Converged/rxn_259/output/Species/rxn_259_Cc1c[c]ccc1/rxn_259_Cc1ccccc1.yml

>  <frequencies_cm1>  (4) 
[15.22410645444, 206.66192320539997, 348.57504182852, 419.03031121172, 484.51388322324, 517.5234816564799, 624.3325713237599, 676.1096406365599, 762.7366604483599, 791.09730981996, 865.3225541438399, 896.45746558472, 978.8887573659999, 993.2064217581999, 999.5927181058, 1055.82646089128, 1058.73119568164, 1096.7399594278397, 1173.85620457144, 1210.6769798572798, 1295.23703708776, 1296.8027097407198, 1402.7740271989599, 1434.15615011136, 1474.3074132773997, 1480.26795653516, 1490.1289474546797, 1578.11563035984, 1650.994945561, 3016.4263065897994, 3080.8592298473595, 3103.18379912268, 3147.54452428988, 3147.7574008347997, 3162.3978135370403, 3174.9437957166797]

>  <ZPE_kJmol>  (4) 
299.7304356118552

>  <E_elec_kJmol>  (4) 
-711188.0367190983

>  <E0_minus_Eelec_plus_ZPE_kJmol>  (4) 
0.0

>  <rxn>  (4) 
rxn_259

>  <species_type>  (4) 
p1

>  <species_folder>  (4) 
rxn_259_Cc1c[c]ccc1

>  <frequencies_cm1_list>  (4) 
[15.22410645444, 206.66192320539997, 348.57504182852, 419.03031121172, 484.51388322324, 517.5234816564799, 624.3325713237599, 676.1096406365599, 762.7366604483599, 791.09730981996, 865.3225541438399, 896.45746558472, 978.8887573659999, 993.2064217581999, 999.5927181058, 1055.82646089128, 1058.73119568164, 1096.7399594278397, 1173.85620457144, 1210.6769798572798, 1295.23703708776, 1296.8027097407198, 1402.7740271989599, 1434.15615011136, 1474.3074132773997, 1480.26795653516, 1490.1289474546797, 1578.11563035984, 1650.994945561, 3016.4263065897994, 3080.8592298473595, 3103.18379912268, 3147.54452428988, 3147.7574008347997, 3162.3978135370403, 3174.9437957166797]

>  <E0_kJmol>  (4) 
-710888

>  <H298_kJmol>  (4) 
-710870

$$$$

     RDKit          3D

  2  1  0  0  0  0  0  0  0  0999 V2000
    0.0000    0.0000    0.4855 O   0  0  0  0  0  1  0  0  0  1  0  0
    0.0000    0.0000   -0.4855 H   0  0  0  0  0  0  0  0  0  2  0  0
  1  2  1  0
M  RAD  1   1   2
M  END
>  <rmg_smiles>  (5) 
[OH]

>  <rmg_adjacency_list>  (5) 
multiplicity 2
1 O u1 p2 c0 {2,S}
2 H u0 p0 c0 {1,S}


>  <multiplicity>  (5) 
2

>  <reaction>  (5) 
rxn_259

>  <type>  (5) 
r2

>  <role_mapnums>  (5) 
{}

>  <role_mapidx>  (5) 
{}

>  <ordered_mapped_smiles>  (5) 
[O:1][H:2]

>  <level_of_theory>  (5) 
wb97xd/def2tzvp

>  <lot_method>  (5) 
wb97xd

>  <lot_basis>  (5) 
def2tzvp

>  <spin_multiplicity>  (5) 
2.0

>  <optical_isomers>  (5) 
1.0

>  <modes>  (5) 
IdealGasTranslation(mass=(17.0027, 'amu')),         LinearRotor(inertia=(0.893825, 'amu*angstrom^2'), symmetry=1),         HarmonicOscillator(frequencies=([3770.81

>  <frequency_value>  (5) 
unknown

>  <frequency_units>  (5) 
unknown

>  <frequency_list>  (5) 
unknown

>  <arkane_path>  (5) 
/home/calvin/Dropbox/PersonalFolders/Calvin/HAb_Converged/rxn_259/output/Species/rxn_259_[OH]/arkane/output.py

>  <path_exists>  (5) 
True

>  <E0_value>  (5) 
-198836.11065632655

>  <E0_units>  (5) 
kJ/mol

>  <thermo_class>  (5) 
NASA

>  <Cp0_value>  (5) 
29.100652

>  <Cp0_units>  (5) 
J/(mol*K)

>  <CpInf_value>  (5) 
37.415124

>  <CpInf_units>  (5) 
J/(mol*K)

>  <Tmin_value>  (5) 
10.0

>  <Tmin_units>  (5) 
K

>  <Tmax_value>  (5) 
3000.0

>  <Tmax_units>  (5) 
K

>  <polynomials>  (5) 
[{"name": "polynomial1", "class": "NASAPolynomial", "Tmin_value": 10.0, "Tmin_units": "K", "Tmax_value": 985.6459359324402, "Tmax_units": "K", "coeffs": [3.49686777077684, 0.00018334165413566602, -9.927422114975035e-07, 1.559335065614597e-09, -6.051175734082516e-13, -23914460.190127544, 1.4722271748407303]}, {"name": "polynomial2", "class": "NASAPolynomial", "Tmin_value": 985.6459359324402, "Tmin_units": "K", "Tmax_value": 3000.0, "Tmax_units": "K", "coeffs": [3.4538997471416084, -0.0002990851320361188, 7.409868333423891e-07, -2.8938793165350344e-10, 3.527321549332907e-14, -23914419.815793645, 1.8407453398243376]}]

>  <H298_value>  (5) 
-47520.895636098256

>  <H298_units>  (5) 
kcal/mol

>  <S298_value>  (5) 
42.56065351108258

>  <S298_units>  (5) 
cal/(mol*K)

>  <Cp_T_value_list>  (5) 
[6.95467440837288, 6.946622347988586, 6.950155535415497, 6.9708793647131895, 7.071890602250594, 7.236783548847422, 7.699190754845551, 8.085833580657471, 8.29452334304518]

>  <Cp_T_units>  (5) 
cal/(mol*K)

>  <T_list>  (5) 
[300.0, 400.0, 500.0, 600.0, 800.0, 1000.0, 1500.0, 2000.0, 2400.0]

>  <T_units>  (5) 
K

>  <yaml_path>  (5) 
/home/calvin/Dropbox/PersonalFolders/Calvin/HAb_Converged/rxn_259/output/Species/rxn_259_[OH]/rxn_259_OH.yml

>  <frequencies_cm1>  (5) 
[3725.55927963024]

>  <ZPE_kJmol>  (5) 
22.28379948603074

>  <E_elec_kJmol>  (5) 
-198858.3944558126

>  <E0_minus_Eelec_plus_ZPE_kJmol>  (5) 
0.0

>  <rxn>  (5) 
rxn_259

>  <species_type>  (5) 
r1

>  <species_folder>  (5) 
rxn_259_[OH]

>  <frequencies_cm1_list>  (5) 
[3725.55927963024]

>  <E0_kJmol>  (5) 
-198836

>  <H298_kJmol>  (5) 
-198827

$$$$
