
     RDKit          3D

  9  8  0  0  0  0  0  0  0  0999 V2000
    0.0417    0.8201   -2.1766 C   0  0  0  0  0  2  0  0  0  1  0  0
    0.3468    0.3058   -1.1363 C   0  0  0  0  0  2  0  0  0  2  0  0
    0.7724   -0.2555    0.1157 C   0  0  0  0  0  0  0  0  0  3  0  0
   -0.2269   -0.3982    1.1379 C   0  0  0  0  0  2  0  0  0  4  0  0
   -1.0204   -0.4832    2.0340 C   0  0  0  0  0  2  0  0  0  5  0  0
   -0.2478    1.2570   -3.1017 H   0  0  0  0  0  0  0  0  0  6  0  0
    1.4916    0.4579    0.5180 H   0  0  0  0  0  0  0  0  0  7  0  0
    1.3838   -1.1496   -0.0068 H   0  0  0  0  0  0  0  0  0  8  0  0
   -1.7395   -0.5734    2.8120 H   0  0  0  0  0  0  0  0  0  9  0  0
  1  6  1  0
  1  2  1  0
  2  3  1  0
  3  4  1  0
  3  7  1  0
  3  8  1  0
  4  5  1  0
  5  9  1  0
M  RAD  4   1   3   2   3   4   3   5   3
M  END
>  <rmg_smiles>  (1) 
[CH][C]C[C][CH]

>  <rmg_adjacency_list>  (1) 
1 C u0 p0 c0 {2,S} {3,S} {6,S} {7,S}
2 C u0 p1 c0 {1,S} {4,S}
3 C u0 p1 c0 {1,S} {5,S}
4 C u0 p1 c0 {2,S} {8,S}
5 C u0 p1 c0 {3,S} {9,S}
6 H u0 p0 c0 {1,S}
7 H u0 p0 c0 {1,S}
8 H u0 p0 c0 {4,S}
9 H u0 p0 c0 {5,S}


>  <multiplicity>  (1) 
1

>  <reaction>  (1) 
rxn_1349

>  <type>  (1) 
r1h

>  <role_mapnums>  (1) 
{"r1h_a": 3, "r1h_h": 7}

>  <role_mapidx>  (1) 
{"r1h_a": 2, "r1h_h": 6}

>  <ordered_mapped_smiles>  (1) 
[C:1]([C:2][C:3]([C:4][C:5][H:9])([H:7])[H:8])[H:6]

>  <mol_properties>  (1) 
{"2": {"label": "donator", "atom_type": "Cs"}, "6": {"label": "d_hydrogen", "atom_type": "H0"}}

>  <level_of_theory>  (1) 
wb97xd/def2tzvp

>  <lot_method>  (1) 
wb97xd

>  <lot_basis>  (1) 
def2tzvp

>  <spin_multiplicity>  (1) 
1.0

>  <optical_isomers>  (1) 
1.0

>  <modes>  (1) 
IdealGasTranslation(mass=(64.0313, 'amu')),         NonlinearRotor(             inertia = ([26.0751, 176.474, 199.453

>  <frequency_value>  (1) 
unknown

>  <frequency_units>  (1) 
unknown

>  <frequency_list>  (1) 
unknown

>  <arkane_path>  (1) 
/home/calvin/Dropbox/PersonalFolders/Calvin/HAb_Converged/rxn_1349/output/Species/rxn_1349_CtCCCtC/arkane/output.py

>  <path_exists>  (1) 
True

>  <E0_value>  (1) 
-505987.1937681529

>  <E0_units>  (1) 
kJ/mol

>  <thermo_class>  (1) 
NASA

>  <Cp0_value>  (1) 
33.257888

>  <Cp0_units>  (1) 
J/(mol*K)

>  <CpInf_value>  (1) 
207.8618

>  <CpInf_units>  (1) 
J/(mol*K)

>  <Tmin_value>  (1) 
10.0

>  <Tmin_units>  (1) 
K

>  <Tmax_value>  (1) 
3000.0

>  <Tmax_units>  (1) 
K

>  <polynomials>  (1) 
[{"name": "polynomial1", "class": "NASAPolynomial", "Tmin_value": 10.0, "Tmin_units": "K", "Tmax_value": 497.8593658816142, "Tmax_units": "K", "coeffs": [3.8915864576213126, 0.006957367241061819, 0.0001124682099447706, -2.5840703133431377e-07, 1.7695513704603586e-10, -60856199.45525289, 8.432136330915357]}, {"name": "polynomial2", "class": "NASAPolynomial", "Tmin_value": 497.8593658816142, "Tmin_units": "K", "Tmax_value": 3000.0, "Tmax_units": "K", "coeffs": [4.075884062024102, 0.02776260095654963, -1.736118740993935e-05, 5.3551737520056605e-09, -6.423292730160111e-13, -60856494.00033687, 4.897725289359391]}]

>  <H298_value>  (1) 
-120929.7923476968

>  <H298_units>  (1) 
kcal/mol

>  <S298_value>  (1) 
71.02155088616169

>  <S298_units>  (1) 
cal/(mol*K)

>  <Cp_T_value_list>  (1) 
[20.979499997159746, 25.160912667766237, 28.310019691035766, 30.91475060774189, 35.08126080246509, 38.13477511079626, 42.68327459382335, 45.15024180882392, 46.54964684058525]

>  <Cp_T_units>  (1) 
cal/(mol*K)

>  <T_list>  (1) 
[300.0, 400.0, 500.0, 600.0, 800.0, 1000.0, 1500.0, 2000.0, 2400.0]

>  <T_units>  (1) 
K

>  <yaml_path>  (1) 
/home/calvin/Dropbox/PersonalFolders/Calvin/HAb_Converged/rxn_1349/output/Species/rxn_1349_CtCCCtC/rxn_1349_CtCCCtC.yml

>  <frequencies_cm1>  (1) 
[136.57060404415998, 317.76287869768, 341.09689481504, 341.70805650852003, 565.30396551304, 688.26420465296, 689.33545436288, 698.59215057424, 701.977574337, 902.24633420948, 929.56320181244, 996.6124464769199, 1233.63331178204, 1332.80631377348, 1444.34675632624, 2232.79340981268, 2237.0921426229997, 3019.1524997618394, 3054.0299182021195, 3436.67207420316, 3437.69525501584]

>  <ZPE_kJmol>  (1) 
171.88700812582363

>  <E_elec_kJmol>  (1) 
-506159.08077627874

>  <E0_minus_Eelec_plus_ZPE_kJmol>  (1) 
0.0

>  <rxn>  (1) 
rxn_1349

>  <species_type>  (1) 
r0

>  <species_folder>  (1) 
rxn_1349_CtCCCtC

>  <frequencies_cm1_list>  (1) 
[136.57060404415998, 317.76287869768, 341.09689481504, 341.70805650852003, 565.30396551304, 688.26420465296, 689.33545436288, 698.59215057424, 701.977574337, 902.24633420948, 929.56320181244, 996.6124464769199, 1233.63331178204, 1332.80631377348, 1444.34675632624, 2232.79340981268, 2237.0921426229997, 3019.1524997618394, 3054.0299182021195, 3436.67207420316, 3437.69525501584]

>  <E0_kJmol>  (1) 
-505987

>  <H298_kJmol>  (1) 
-505970

$$$$

     RDKit          3D

 14 13  0  0  0  0  0  0  0  0999 V2000
   -0.7989   -0.9398   -0.4924 H   0  0  0  0  0  0  0  0  0  1  0  0
    0.9137   -0.0402   -1.1548 C   0  0  0  0  0  0  0  0  0  2  0  0
   -0.1384   -0.1727   -0.0883 C   0  0  0  0  0  0  0  0  0  3  0  0
    0.3164   -0.7732    1.2133 C   0  0  0  0  0  0  0  0  0  4  0  0
   -1.0856    0.9889    0.0322 C   0  0  0  0  0  0  0  0  0  5  0  0
    1.4797   -0.9660   -1.2764 H   0  0  0  0  0  0  0  0  0  6  0  0
    0.4687    0.2207   -2.1170 H   0  0  0  0  0  0  0  0  0  7  0  0
    1.6285    0.7505   -0.8945 H   0  0  0  0  0  0  0  0  0  8  0  0
    0.9595   -0.0705    1.7578 H   0  0  0  0  0  0  0  0  0  9  0  0
    0.8920   -1.6872    1.0534 H   0  0  0  0  0  0  0  0  0 10  0  0
   -0.5336   -1.0093    1.8565 H   0  0  0  0  0  0  0  0  0 11  0  0
   -1.4997    1.2627   -0.9401 H   0  0  0  0  0  0  0  0  0 12  0  0
   -1.9142    0.7540    0.7032 H   0  0  0  0  0  0  0  0  0 13  0  0
   -0.5678    1.8683    0.4351 H   0  0  0  0  0  0  0  0  0 14  0  0
  1  3  1  0
  2  7  1  0
  2  8  1  0
  2  6  1  0
  2  3  1  0
  3  4  1  0
  3  5  1  0
  4  9  1  0
  4 10  1  0
  4 11  1  0
  5 12  1  0
  5 14  1  0
  5 13  1  0
M  END
>  <rmg_smiles>  (2) 
CC(C)C

>  <rmg_adjacency_list>  (2) 
1  C u0 p0 c0 {2,S} {3,S} {4,S} {5,S}
2  C u0 p0 c0 {1,S} {6,S} {7,S} {8,S}
3  C u0 p0 c0 {1,S} {9,S} {10,S} {11,S}
4  C u0 p0 c0 {1,S} {12,S} {13,S} {14,S}
5  H u0 p0 c0 {1,S}
6  H u0 p0 c0 {2,S}
7  H u0 p0 c0 {2,S}
8  H u0 p0 c0 {2,S}
9  H u0 p0 c0 {3,S}
10 H u0 p0 c0 {3,S}
11 H u0 p0 c0 {3,S}
12 H u0 p0 c0 {4,S}
13 H u0 p0 c0 {4,S}
14 H u0 p0 c0 {4,S}


>  <multiplicity>  (2) 
1

>  <reaction>  (2) 
rxn_1349

>  <type>  (2) 
r2h

>  <role_mapnums>  (2) 
{"r2h_a": 3, "r2h_h": 1}

>  <role_mapidx>  (2) 
{"r2h_a": 2, "r2h_h": 0}

>  <ordered_mapped_smiles>  (2) 
[H:1][C:3]([C:2]([H:6])([H:7])[H:8])([C:4]([H:9])([H:10])[H:11])[C:5]([H:12])([H:13])[H:14]

>  <mol_properties>  (2) 
{"0": {"label": "a_hydrogen", "atom_type": "H0"}, "2": {"label": "acceptor", "atom_type": "Cs"}}

>  <level_of_theory>  (2) 
wb97xd/def2tzvp

>  <lot_method>  (2) 
wb97xd

>  <lot_basis>  (2) 
def2tzvp

>  <spin_multiplicity>  (2) 
1.0

>  <optical_isomers>  (2) 
1.0

>  <modes>  (2) 
IdealGasTranslation(mass=(58.0782, 'amu')),         NonlinearRotor(             inertia = ([64.4716, 64.473, 111.215

>  <frequency_value>  (2) 
unknown

>  <frequency_units>  (2) 
unknown

>  <frequency_list>  (2) 
unknown

>  <arkane_path>  (2) 
/home/calvin/Dropbox/PersonalFolders/Calvin/HAb_Converged/rxn_1349/output/Species/rxn_1349_CC[C]C/arkane/output.py

>  <path_exists>  (2) 
True

>  <E0_value>  (2) 
-415716.8621414885

>  <E0_units>  (2) 
kJ/mol

>  <thermo_class>  (2) 
NASA

>  <Cp0_value>  (2) 
33.257888

>  <Cp0_units>  (2) 
J/(mol*K)

>  <CpInf_value>  (2) 
332.57888

>  <CpInf_units>  (2) 
J/(mol*K)

>  <Tmin_value>  (2) 
10.0

>  <Tmin_units>  (2) 
K

>  <Tmax_value>  (2) 
3000.0

>  <Tmax_units>  (2) 
K

>  <polynomials>  (2) 
[{"name": "polynomial1", "class": "NASAPolynomial", "Tmin_value": 10.0, "Tmin_units": "K", "Tmax_value": 537.4199450286388, "Tmax_units": "K", "coeffs": [3.8630983650900457, 0.00952937090428865, 8.524953408573744e-05, -1.3185553602403228e-07, 6.386512666673418e-11, -49999185.162952475, 7.557952072589903]}, {"name": "polynomial2", "class": "NASAPolynomial", "Tmin_value": 537.4199450286388, "Tmin_units": "K", "Tmax_value": 3000.0, "Tmax_units": "K", "coeffs": [-1.523999996025925, 0.04962517259238633, -2.6661823745614236e-05, 6.969217403110817e-09, -7.138151082666271e-13, -49998606.13317818, 30.202359171338003]}]

>  <H298_value>  (2) 
-99354.53984088196

>  <H298_units>  (2) 
kcal/mol

>  <S298_value>  (2) 
69.85860657437492

>  <S298_units>  (2) 
cal/(mol*K)

>  <Cp_T_value_list>  (2) 
[22.557925141288862, 28.83628421694776, 34.67634755939607, 39.874664709792945, 48.46484967010328, 55.035189518876415, 65.24411330676891, 70.37045523748901, 72.85913527947103]

>  <Cp_T_units>  (2) 
cal/(mol*K)

>  <T_list>  (2) 
[300.0, 400.0, 500.0, 600.0, 800.0, 1000.0, 1500.0, 2000.0, 2400.0]

>  <T_units>  (2) 
K

>  <yaml_path>  (2) 
/home/calvin/Dropbox/PersonalFolders/Calvin/HAb_Converged/rxn_1349/output/Species/rxn_1349_CC[C]C/rxn_1349_CCCC.yml

>  <frequencies_cm1>  (2) 
[211.40701006152, 262.66218849, 263.82270900908, 368.7983135959199, 369.14166286191994, 435.30506642011994, 803.97290729496, 924.79751400036, 924.96232164804, 953.1032274894, 976.21750007652, 976.3617067682399, 1191.05800279804, 1191.10607169528, 1204.125875862, 1353.0707874528, 1353.18065921792, 1393.20144966288, 1393.45552811972, 1417.33203607736, 1467.4816298693202, 1474.0670687911997, 1474.22500945356, 1492.55986025796, 1492.5941951845598, 1500.8551785245202, 2997.8717122551598, 2999.7395322622, 2999.8562710126403, 3005.20565257692, 3068.4368534034797, 3068.5055232566797, 3077.21286064244, 3079.1562174879996, 3082.7201828690795, 3083.02919720848]

>  <ZPE_kJmol>  (2) 
342.91323460958984

>  <E_elec_kJmol>  (2) 
-416059.7753760981

>  <E0_minus_Eelec_plus_ZPE_kJmol>  (2) 
0.0

>  <rxn>  (2) 
rxn_1349

>  <species_type>  (2) 
p0

>  <species_folder>  (2) 
rxn_1349_CC[C]C

>  <frequencies_cm1_list>  (2) 
[211.40701006152, 262.66218849, 263.82270900908, 368.7983135959199, 369.14166286191994, 435.30506642011994, 803.97290729496, 924.79751400036, 924.96232164804, 953.1032274894, 976.21750007652, 976.3617067682399, 1191.05800279804, 1191.10607169528, 1204.125875862, 1353.0707874528, 1353.18065921792, 1393.20144966288, 1393.45552811972, 1417.33203607736, 1467.4816298693202, 1474.0670687911997, 1474.22500945356, 1492.55986025796, 1492.5941951845598, 1500.8551785245202, 2997.8717122551598, 2999.7395322622, 2999.8562710126403, 3005.20565257692, 3068.4368534034797, 3068.5055232566797, 3077.21286064244, 3079.1562174879996, 3082.7201828690795, 3083.02919720848]

>  <E0_kJmol>  (2) 
-415717

>  <H298_kJmol>  (2) 
-415699

$$$$

     RDKit          3D

 22 20  0  0  0  0  0  0  0  0999 V2000
   -1.1839    0.0072   -2.7034 C   0  0  0  0  0  0  0  0  0  1  0  0
   -0.8789   -0.5071   -1.6630 C   0  0  0  0  0  0  0  0  0  2  0  0
   -0.4532   -1.0685   -0.4110 C   0  0  0  0  0  0  0  0  0  3  0  0
   -1.4525   -1.2111    0.6112 C   0  0  0  0  0  0  0  0  0  4  0  0
   -2.2460   -1.2962    1.5073 C   0  0  0  0  0  0  0  0  0  5  0  0
   -1.4735    0.4441   -3.6284 H   0  0  0  0  0  0  0  0  0  6  0  0
    0.4065   -0.2156    0.0699 H   0  0  0  0  0  0  0  0  0  7  0  0
    0.1581   -1.9626   -0.5335 H   0  0  0  0  0  0  0  0  0  8  0  0
   -2.9652   -1.3864    2.2853 H   0  0  0  0  0  0  0  0  0  9  0  0
    2.3056    0.9004   -0.4785 C   0  0  0  0  0  0  0  0  0 10  0  0
    1.2535    0.7680    0.5880 C   0  0  0  0  0  3  0  0  0 11  0  0
    1.7083    0.1674    1.8896 C   0  0  0  0  0  0  0  0  0 12  0  0
    0.3063    1.9295    0.7086 C   0  0  0  0  0  0  0  0  0 13  0  0
    2.8716   -0.0254   -0.6000 H   0  0  0  0  0  0  0  0  0 14  0  0
    1.8606    1.1613   -1.4407 H   0  0  0  0  0  0  0  0  0 15  0  0
    3.0204    1.6912   -0.2182 H   0  0  0  0  0  0  0  0  0 16  0  0
    2.3514    0.8702    2.4342 H   0  0  0  0  0  0  0  0  0 17  0  0
    2.2839   -0.7465    1.7297 H   0  0  0  0  0  0  0  0  0 18  0  0
    0.8583   -0.0686    2.5329 H   0  0  0  0  0  0  0  0  0 19  0  0
   -0.1078    2.2033   -0.2637 H   0  0  0  0  0  0  0  0  0 20  0  0
   -0.5223    1.6947    1.3795 H   0  0  0  0  0  0  0  0  0 21  0  0
    0.8241    2.8089    1.1114 H   0  0  0  0  0  0  0  0  0 22  0  0
  1  6  1  0
  1  2  1  0
  2  3  1  0
  3  4  1  0
  3  8  1  0
  3  7  1  0
  4  5  1  0
  5  9  1  0
 10 16  1  0
 10 15  1  0
 10 11  1  0
 10 14  1  0
 11 13  1  0
 11 12  1  0
 12 19  1  0
 12 17  1  0
 12 18  1  0
 13 21  1  0
 13 20  1  0
 13 22  1  0
M  RAD  1  11   2
M  END
>  <rmg_smiles>  (3) 
C[C](C)C.[CH]CCC[CH]

>  <rmg_adjacency_list>  (3) 
multiplicity 2
1  C u0 p0 c0 {5,S} {12,S} {13,S} {14,S}
2  C u0 p0 c0 {5,S} {15,S} {16,S} {17,S}
3  C u0 p0 c0 {5,S} {18,S} {19,S} {20,S}
4  C u0 p0 c0 {6,S} {7,S} {10,S} {11,S}
5  C u1 p0 c0 {1,S} {2,S} {3,S}
6  C u0 p1 c0 {4,S} {8,S}
7  C u0 p1 c0 {4,S} {9,S}
8  C u0 p1 c0 {6,S} {21,S}
9  C u0 p1 c0 {7,S} {22,S}
10 H u0 p0 c0 {4,S}
11 H u0 p0 c0 {4,S}
12 H u0 p0 c0 {1,S}
13 H u0 p0 c0 {1,S}
14 H u0 p0 c0 {1,S}
15 H u0 p0 c0 {2,S}
16 H u0 p0 c0 {2,S}
17 H u0 p0 c0 {2,S}
18 H u0 p0 c0 {3,S}
19 H u0 p0 c0 {3,S}
20 H u0 p0 c0 {3,S}
21 H u0 p0 c0 {8,S}
22 H u0 p0 c0 {9,S}


>  <multiplicity>  (3) 
2

>  <reaction>  (3) 
rxn_1349

>  <type>  (3) 
ts

>  <role_mapnums>  (3) 
{"*2": 7, "*1": 3, "*3": 11, "*0": 2, "*4": 10}

>  <role_mapidx>  (3) 
{"*2": 6, "*1": 2, "*3": 10, "*0": 1, "*4": 9}

>  <ordered_mapped_smiles>  (3) 
[CH2:1]([CH2:2][C:3]([CH2:4][CH2:5][H:9])([H:7])[H:8])[H:6].[C:10]([C:11]([C:12]([H:17])([H:18])[H:19])[C:13]([H:20])([H:21])[H:22])([H:14])([H:15])[H:16]

>  <mol_properties>  (3) 
{"1": {"label": "*0", "atom_type": "C2s"}, "2": {"label": "*1", "atom_type": "Cs"}, "6": {"label": "*2", "atom_type": "H0"}, "9": {"label": "*4", "atom_type": "Cs"}, "10": {"label": "*3", "atom_type": "Cs"}}

>  <level_of_theory>  (3) 
wb97xd/def2tzvp

>  <lot_method>  (3) 
wb97xd

>  <lot_basis>  (3) 
def2tzvp

>  <spin_multiplicity>  (3) 
2.0

>  <optical_isomers>  (3) 
1.0

>  <modes>  (3) 
IdealGasTranslation(mass=(121.102, 'amu')),         NonlinearRotor(             inertia = ([302.074, 434.963, 606.588

>  <frequency_value>  (3) 
-1539.37

>  <frequency_units>  (3) 
cm^-1

>  <frequency_list>  (3) 
unknown

>  <arkane_path>  (3) 
/home/calvin/Dropbox/PersonalFolders/Calvin/HAb_Converged/rxn_1349/output/rxns/TS0/arkane/output.py

>  <path_exists>  (3) 
True

>  <E0_value>  (3) 
-919980.0

>  <E0_units>  (3) 
kJ/mol

>  <thermo_class>  (3) 
unknown

>  <Cp0_value>  (3) 
unknown

>  <Cp0_units>  (3) 
unknown

>  <CpInf_value>  (3) 
unknown

>  <CpInf_units>  (3) 
unknown

>  <Tmin_value>  (3) 
unknown

>  <Tmin_units>  (3) 
unknown

>  <Tmax_value>  (3) 
unknown

>  <Tmax_units>  (3) 
unknown

>  <polynomials>  (3) 
unknown

>  <H298_value>  (3) 
unknown

>  <H298_units>  (3) 
unknown

>  <S298_value>  (3) 
unknown

>  <S298_units>  (3) 
unknown

>  <Cp_T_value_list>  (3) 
unknown

>  <Cp_T_units>  (3) 
unknown

>  <T_list>  (3) 
unknown

>  <T_units>  (3) 
unknown

>  <yaml_path>  (3) 
unknown

>  <frequencies_cm1>  (3) 
unknown

>  <ZPE_kJmol>  (3) 
unknown

>  <E_elec_kJmol>  (3) 
unknown

>  <E0_minus_Eelec_plus_ZPE_kJmol>  (3) 
unknown

>  <rxn>  (3) 
unknown

>  <species_type>  (3) 
unknown

>  <species_folder>  (3) 
unknown

>  <frequencies_cm1_list>  (3) 
[]

>  <ts_imag_freq_cm1>  (3) 
-1558.0708

>  <ts_freq_out_path>  (3) 
/home/calvin/Dropbox/PersonalFolders/Calvin/HAb_Converged/rxn_1349/output/rxns/TS0/geometry/freq.out

>  <E0_kJmol>  (3) 
-919980

>  <H298_kJmol>  (3) 
unknown

$$$$

     RDKit          3D

  8  7  0  0  0  0  0  0  0  0999 V2000
   -2.2129    0.4855    0.7390 C   0  0  0  0  0  0  0  0  0  1  0  0
   -1.2226    0.0526    0.1974 C   0  0  0  0  0  0  0  0  0  2  0  0
   -0.1006   -0.4575   -0.4419 C   0  0  0  0  0  3  0  0  0  3  0  0
    1.1960   -0.1737   -0.0342 C   0  0  0  0  0  0  0  0  0  4  0  0
    2.3329    0.0603    0.3036 C   0  0  0  0  0  0  0  0  0  5  0  0
   -3.0803    0.8696    1.2198 H   0  0  0  0  0  0  0  0  0  6  0  0
   -0.2433   -1.1067   -1.2980 H   0  0  0  0  0  0  0  0  0  7  0  0
    3.3308    0.2700    0.6058 H   0  0  0  0  0  0  0  0  0  8  0  0
  1  6  1  0
  1  2  1  0
  2  3  1  0
  3  4  1  0
  3  7  1  0
  4  5  1  0
  5  8  1  0
M  RAD  1   3   2
M  END
>  <rmg_smiles>  (4) 
[CH]C[CH]C[CH]

>  <rmg_adjacency_list>  (4) 
multiplicity 2
1 C u1 p0 c0 {2,S} {3,S} {6,S}
2 C u0 p1 c0 {1,S} {4,S}
3 C u0 p1 c0 {1,S} {5,S}
4 C u0 p1 c0 {2,S} {7,S}
5 C u0 p1 c0 {3,S} {8,S}
6 H u0 p0 c0 {1,S}
7 H u0 p0 c0 {4,S}
8 H u0 p0 c0 {5,S}


>  <multiplicity>  (4) 
2

>  <reaction>  (4) 
rxn_1349

>  <type>  (4) 
r1

>  <role_mapnums>  (4) 
{}

>  <role_mapidx>  (4) 
{}

>  <ordered_mapped_smiles>  (4) 
[CH2:1]([CH2:2][C:3]([CH2:4][CH2:5][H:8])[H:7])[H:6]

>  <level_of_theory>  (4) 
wb97xd/def2tzvp

>  <lot_method>  (4) 
wb97xd

>  <lot_basis>  (4) 
def2tzvp

>  <spin_multiplicity>  (4) 
2.0

>  <optical_isomers>  (4) 
1.0

>  <modes>  (4) 
IdealGasTranslation(mass=(63.0235, 'amu')),         NonlinearRotor(             inertia = ([17.4877, 183.017, 200.505

>  <frequency_value>  (4) 
unknown

>  <frequency_units>  (4) 
unknown

>  <frequency_list>  (4) 
unknown

>  <arkane_path>  (4) 
/home/calvin/Dropbox/PersonalFolders/Calvin/HAb_Converged/rxn_1349/output/Species/rxn_1349_CtC[CH]CtC/arkane/output.py

>  <path_exists>  (4) 
True

>  <E0_value>  (4) 
-504350.2602594301

>  <E0_units>  (4) 
kJ/mol

>  <thermo_class>  (4) 
NASA

>  <Cp0_value>  (4) 
33.257888

>  <Cp0_units>  (4) 
J/(mol*K)

>  <CpInf_value>  (4) 
182.918384

>  <CpInf_units>  (4) 
J/(mol*K)

>  <Tmin_value>  (4) 
10.0

>  <Tmin_units>  (4) 
K

>  <Tmax_value>  (4) 
3000.0

>  <Tmax_units>  (4) 
K

>  <polynomials>  (4) 
[{"name": "polynomial1", "class": "NASAPolynomial", "Tmin_value": 10.0, "Tmin_units": "K", "Tmax_value": 511.3919089489883, "Tmax_units": "K", "coeffs": [3.8659954757573973, 0.008525616172306112, 0.00010836986673963408, -2.626119315958765e-07, 1.8230598905311024e-10, -60659320.69120562, 8.776064020238547]}, {"name": "polynomial2", "class": "NASAPolynomial", "Tmin_value": 511.3919089489883, "Tmin_units": "K", "Tmax_value": 3000.0, "Tmax_units": "K", "coeffs": [5.628254952966442, 0.022649494843224656, -1.4916539685924306e-05, 4.8216558906608004e-09, -6.002662773476099e-13, -60659865.858327985, -2.111983316915381]}]

>  <H298_value>  (4) 
-120538.51368508991

>  <H298_units>  (4) 
kcal/mol

>  <S298_value>  (4) 
71.92961318485641

>  <S298_units>  (4) 
cal/(mol*K)

>  <Cp_T_value_list>  (4) 
[20.99111005886384, 24.790978026499133, 27.40139790751197, 29.433868246293493, 32.638046849521324, 34.940256474405714, 38.30245845445545, 40.20133175263048, 41.34770744760823]

>  <Cp_T_units>  (4) 
cal/(mol*K)

>  <T_list>  (4) 
[300.0, 400.0, 500.0, 600.0, 800.0, 1000.0, 1500.0, 2000.0, 2400.0]

>  <T_units>  (4) 
K

>  <yaml_path>  (4) 
/home/calvin/Dropbox/PersonalFolders/Calvin/HAb_Converged/rxn_1349/output/Species/rxn_1349_CtC[CH]CtC/rxn_1349_CtCCHCtC.yml

>  <frequencies_cm1>  (4) 
[140.92427273703998, 354.42571332116, 356.18366156308, 383.39752438624004, 580.9812929985999, 582.4370938864399, 598.9659275516799, 670.81519495484, 678.8701687352, 681.5894949219199, 955.0809192615599, 1115.22588390928, 1366.0425227222797, 2023.89971637828, 2119.4194821794795, 3149.0140591483596, 3426.6737435772397, 3430.6016591802795]

>  <ZPE_kJmol>  (4) 
135.26507637113028

>  <E_elec_kJmol>  (4) 
-504485.5253358012

>  <E0_minus_Eelec_plus_ZPE_kJmol>  (4) 
0.0

>  <rxn>  (4) 
rxn_1349

>  <species_type>  (4) 
p1

>  <species_folder>  (4) 
rxn_1349_CtC[CH]CtC

>  <frequencies_cm1_list>  (4) 
[140.92427273703998, 354.42571332116, 356.18366156308, 383.39752438624004, 580.9812929985999, 582.4370938864399, 598.9659275516799, 670.81519495484, 678.8701687352, 681.5894949219199, 955.0809192615599, 1115.22588390928, 1366.0425227222797, 2023.89971637828, 2119.4194821794795, 3149.0140591483596, 3426.6737435772397, 3430.6016591802795]

>  <E0_kJmol>  (4) 
-504350

>  <H298_kJmol>  (4) 
-504333

$$$$

     RDKit          3D

 13 12  0  0  0  0  0  0  0  0999 V2000
   -1.3649   -0.5967   -0.3477 C   0  0  0  0  0  0  0  0  0  1  0  0
   -0.1601   -0.2776    0.4669 C   0  0  0  0  0  3  0  0  0  2  0  0
    1.1241   -0.9571    0.1414 C   0  0  0  0  0  0  0  0  0  3  0  0
   -0.1188    1.0130    1.2081 C   0  0  0  0  0  0  0  0  0  4  0  0
   -1.4266   -1.6632   -0.5770 H   0  0  0  0  0  0  0  0  0  5  0  0
   -2.2858   -0.3004    0.1602 H   0  0  0  0  0  0  0  0  0  6  0  0
   -1.3532   -0.0668   -1.3138 H   0  0  0  0  0  0  0  0  0  7  0  0
    1.6174   -0.4963   -0.7297 H   0  0  0  0  0  0  0  0  0  8  0  0
    0.9723   -2.0104   -0.1064 H   0  0  0  0  0  0  0  0  0  9  0  0
    1.8338   -0.8977    0.9701 H   0  0  0  0  0  0  0  0  0 10  0  0
   -1.0852    1.2507    1.6593 H   0  0  0  0  0  0  0  0  0 11  0  0
    0.6358    1.0009    1.9983 H   0  0  0  0  0  0  0  0  0 12  0  0
    0.1343    1.8546    0.5434 H   0  0  0  0  0  0  0  0  0 13  0  0
  1  5  1  0
  1  7  1  0
  1  6  1  0
  1  2  1  0
  2  3  1  0
  2  4  1  0
  3  9  1  0
  3 10  1  0
  3  8  1  0
  4 13  1  0
  4 12  1  0
  4 11  1  0
M  RAD  1   2   2
M  END
>  <rmg_smiles>  (5) 
C[C](C)C

>  <rmg_adjacency_list>  (5) 
multiplicity 2
1  C u0 p0 c0 {4,S} {5,S} {6,S} {7,S}
2  C u0 p0 c0 {4,S} {8,S} {9,S} {10,S}
3  C u0 p0 c0 {4,S} {11,S} {12,S} {13,S}
4  C u1 p0 c0 {1,S} {2,S} {3,S}
5  H u0 p0 c0 {1,S}
6  H u0 p0 c0 {1,S}
7  H u0 p0 c0 {1,S}
8  H u0 p0 c0 {2,S}
9  H u0 p0 c0 {2,S}
10 H u0 p0 c0 {2,S}
11 H u0 p0 c0 {3,S}
12 H u0 p0 c0 {3,S}
13 H u0 p0 c0 {3,S}


>  <multiplicity>  (5) 
2

>  <reaction>  (5) 
rxn_1349

>  <type>  (5) 
r2

>  <role_mapnums>  (5) 
{}

>  <role_mapidx>  (5) 
{}

>  <ordered_mapped_smiles>  (5) 
[C:1]([C:2]([C:3]([H:8])([H:9])[H:10])[C:4]([H:11])([H:12])[H:13])([H:5])([H:6])[H:7]

>  <level_of_theory>  (5) 
wb97xd/def2tzvp

>  <lot_method>  (5) 
wb97xd

>  <lot_basis>  (5) 
def2tzvp

>  <spin_multiplicity>  (5) 
2.0

>  <optical_isomers>  (5) 
1.0

>  <modes>  (5) 
IdealGasTranslation(mass=(57.0704, 'amu')),         NonlinearRotor(             inertia = ([62.7477, 62.7516, 115.628

>  <frequency_value>  (5) 
unknown

>  <frequency_units>  (5) 
unknown

>  <frequency_list>  (5) 
unknown

>  <arkane_path>  (5) 
/home/calvin/Dropbox/PersonalFolders/Calvin/HAb_Converged/rxn_1349/output/Species/rxn_1349_C[C][C]C/arkane/output.py

>  <path_exists>  (5) 
True

>  <E0_value>  (5) 
-414011.7593612332

>  <E0_units>  (5) 
kJ/mol

>  <thermo_class>  (5) 
NASA

>  <Cp0_value>  (5) 
33.257888

>  <Cp0_units>  (5) 
J/(mol*K)

>  <CpInf_value>  (5) 
307.635464

>  <CpInf_units>  (5) 
J/(mol*K)

>  <Tmin_value>  (5) 
10.0

>  <Tmin_units>  (5) 
K

>  <Tmax_value>  (5) 
3000.0

>  <Tmax_units>  (5) 
K

>  <polynomials>  (5) 
[{"name": "polynomial1", "class": "NASAPolynomial", "Tmin_value": 10.0, "Tmin_units": "K", "Tmax_value": 466.1202020886646, "Tmax_units": "K", "coeffs": [3.6355575872452652, 0.03663860788712292, -8.044337079315339e-05, 2.06838442793795e-07, -1.7299528578487832e-10, -49794112.58841816, 8.363301172943128]}, {"name": "polynomial2", "class": "NASAPolynomial", "Tmin_value": 466.1202020886646, "Tmin_units": "K", "Tmax_value": 3000.0, "Tmax_units": "K", "coeffs": [-0.504801622064784, 0.045839326676912304, -2.532144675493782e-05, 6.815276047160087e-09, -7.176160828420842e-13, -49793440.57749781, 28.245955222812366]}]

>  <H298_value>  (5) 
-98946.55982425544

>  <H298_units>  (5) 
kcal/mol

>  <S298_value>  (5) 
75.32579218499754

>  <S298_units>  (5) 
cal/(mol*K)

>  <Cp_T_value_list>  (5) 
[22.993196822342103, 28.276045634973798, 33.56701491886455, 38.27790971311422, 46.01658753801581, 51.88742882343448, 60.90700177241191, 65.43556187203772, 67.69149841961325]

>  <Cp_T_units>  (5) 
cal/(mol*K)

>  <T_list>  (5) 
[300.0, 400.0, 500.0, 600.0, 800.0, 1000.0, 1500.0, 2000.0, 2400.0]

>  <T_units>  (5) 
K

>  <yaml_path>  (5) 
/home/calvin/Dropbox/PersonalFolders/Calvin/HAb_Converged/rxn_1349/output/Species/rxn_1349_C[C][C]C/rxn_1349_CCCC.yml

>  <frequencies_cm1>  (5) 
[127.70532599603999, 132.20320138064, 133.72080513635998, 257.48448155871995, 382.7726287221199, 383.17778085599997, 764.0894565563999, 931.0258696855999, 931.334884025, 964.27581260504, 1004.44767672704, 1004.7154891545199, 1088.22489763104, 1293.76063524396, 1293.83617208248, 1387.45378295004, 1387.58425567112, 1410.79466605272, 1453.72705827336, 1456.5699901958399, 1456.9957432856797, 1475.83188401844, 1478.2627968217198, 1478.3589346161998, 2924.1546248449595, 2924.35376741924, 2931.9280522272, 3026.77485346704, 3027.0014639826, 3028.1070486191197, 3072.47464077164, 3076.36135446276, 3076.6497678462]

>  <ZPE_kJmol>  (5) 
303.6491546138011

>  <E_elec_kJmol>  (5) 
-414315.4085158469

>  <E0_minus_Eelec_plus_ZPE_kJmol>  (5) 
0.0

>  <rxn>  (5) 
rxn_1349

>  <species_type>  (5) 
r1

>  <species_folder>  (5) 
rxn_1349_C[C][C]C

>  <frequencies_cm1_list>  (5) 
[127.70532599603999, 132.20320138064, 133.72080513635998, 257.48448155871995, 382.7726287221199, 383.17778085599997, 764.0894565563999, 931.0258696855999, 931.334884025, 964.27581260504, 1004.44767672704, 1004.7154891545199, 1088.22489763104, 1293.76063524396, 1293.83617208248, 1387.45378295004, 1387.58425567112, 1410.79466605272, 1453.72705827336, 1456.5699901958399, 1456.9957432856797, 1475.83188401844, 1478.2627968217198, 1478.3589346161998, 2924.1546248449595, 2924.35376741924, 2931.9280522272, 3026.77485346704, 3027.0014639826, 3028.1070486191197, 3072.47464077164, 3076.36135446276, 3076.6497678462]

>  <E0_kJmol>  (5) 
-414012

>  <H298_kJmol>  (5) 
-413992

$$$$
