
     RDKit          3D

 15 14  0  0  0  0  0  0  0  0999 V2000
    0.4033   -1.1679   -1.5714 C   0  0  0  0  0  0  0  0  0  1  0  0
    0.1381   -1.0344   -0.2750 C   0  0  0  0  0  0  0  0  0  2  0  0
    0.1479    0.2199    0.5101 C   0  0  0  0  0  0  0  0  0  3  0  0
   -0.9846    0.3012    1.5196 C   0  0  0  0  0  0  0  0  0  4  0  0
    0.3428    1.4963   -0.2799 C   0  0  0  0  0  0  0  0  0  5  0  0
    0.3904   -2.1410   -2.0454 H   0  0  0  0  0  0  0  0  0  6  0  0
    0.6348   -0.3196   -2.2041 H   0  0  0  0  0  0  0  0  0  7  0  0
   -0.0920   -1.9299    0.2983 H   0  0  0  0  0  0  0  0  0  8  0  0
    1.0428    0.1400    1.1273 H   0  0  0  0  0  0  0  0  0  9  0  0
   -1.0443   -0.6085    2.1203 H   0  0  0  0  0  0  0  0  0 10  0  0
   -1.9475    0.4356    1.0174 H   0  0  0  0  0  0  0  0  0 11  0  0
   -0.8407    1.1457    2.1970 H   0  0  0  0  0  0  0  0  0 12  0  0
   -0.4928    1.6676   -0.9656 H   0  0  0  0  0  0  0  0  0 13  0  0
    1.2622    1.4667   -0.8667 H   0  0  0  0  0  0  0  0  0 14  0  0
    0.4043    2.3540    0.3926 H   0  0  0  0  0  0  0  0  0 15  0  0
  1  7  1  0
  1  6  1  0
  1  2  1  0
  2  8  1  0
  2  3  1  0
  3  4  1  0
  3  5  1  0
  3  9  1  0
  4 12  1  0
  4 10  1  0
  4 11  1  0
  5 14  1  0
  5 15  1  0
  5 13  1  0
M  END
>  <rmg_smiles>  (1) 
[CH2][CH]C(C)C

>  <rmg_adjacency_list>  (1) 
1  C u0 p0 c0 {2,S} {3,S} {4,S} {6,S}
2  C u0 p0 c0 {1,S} {7,S} {8,S} {9,S}
3  C u0 p0 c0 {1,S} {10,S} {11,S} {12,S}
4  C u0 p0 c0 {1,S} {5,S} {13,S}
5  C u0 p0 c0 {4,S} {14,S} {15,S}
6  H u0 p0 c0 {1,S}
7  H u0 p0 c0 {2,S}
8  H u0 p0 c0 {2,S}
9  H u0 p0 c0 {2,S}
10 H u0 p0 c0 {3,S}
11 H u0 p0 c0 {3,S}
12 H u0 p0 c0 {3,S}
13 H u0 p0 c0 {4,S}
14 H u0 p0 c0 {5,S}
15 H u0 p0 c0 {5,S}


>  <multiplicity>  (1) 
1

>  <reaction>  (1) 
rxn_1099

>  <type>  (1) 
r1h

>  <role_mapnums>  (1) 
{"r1h_a": 3, "r1h_h": 9}

>  <role_mapidx>  (1) 
{"r1h_a": 2, "r1h_h": 8}

>  <ordered_mapped_smiles>  (1) 
[CH:1]([CH:2]([C:3]([C:4]([H:10])([H:11])[H:12])([C:5]([H:13])([H:14])[H:15])[H:9])[H:8])([H:6])[H:7]

>  <mol_properties>  (1) 
{"2": {"label": "donator", "atom_type": "Cs"}, "8": {"label": "d_hydrogen", "atom_type": "H0"}}

>  <level_of_theory>  (1) 
wb97xd/def2tzvp

>  <lot_method>  (1) 
wb97xd

>  <lot_basis>  (1) 
def2tzvp

>  <spin_multiplicity>  (1) 
1.0

>  <optical_isomers>  (1) 
2.0

>  <modes>  (1) 
IdealGasTranslation(mass=(70.0782, 'amu')),         NonlinearRotor(             inertia = ([68.8788, 128.178, 174.37

>  <frequency_value>  (1) 
unknown

>  <frequency_units>  (1) 
unknown

>  <frequency_list>  (1) 
unknown

>  <arkane_path>  (1) 
/home/calvin/Dropbox/PersonalFolders/Calvin/HAb_Converged/rxn_1099/output/Species/rxn_1099_C=CC[C]C/arkane/output.py

>  <path_exists>  (1) 
True

>  <E0_value>  (1) 
-515671.6318770071

>  <E0_units>  (1) 
kJ/mol

>  <thermo_class>  (1) 
NASA

>  <Cp0_value>  (1) 
33.257888

>  <Cp0_units>  (1) 
J/(mol*K)

>  <CpInf_value>  (1) 
357.522296

>  <CpInf_units>  (1) 
J/(mol*K)

>  <Tmin_value>  (1) 
10.0

>  <Tmin_units>  (1) 
K

>  <Tmax_value>  (1) 
3000.0

>  <Tmax_units>  (1) 
K

>  <polynomials>  (1) 
[{"name": "polynomial1", "class": "NASAPolynomial", "Tmin_value": 10.0, "Tmin_units": "K", "Tmax_value": 513.4615309880209, "Tmax_units": "K", "coeffs": [3.824072118793469, 0.014610417250382769, 8.86977747361049e-05, -1.4778014101245623e-07, 7.53250838814886e-11, -62020968.694845244, 10.328469624492818]}, {"name": "polynomial2", "class": "NASAPolynomial", "Tmin_value": 513.4615309880209, "Tmin_units": "K", "Tmax_value": 3000.0, "Tmax_units": "K", "coeffs": [-1.479230917465841, 0.055924134671802773, -3.1992804937341405e-05, 8.92020431982837e-09, -9.702190266132043e-13, -62020424.0810976, 32.378816436370464]}]

>  <H298_value>  (1) 
-123243.87224887878

>  <H298_units>  (1) 
kcal/mol

>  <S298_value>  (1) 
78.00130767234806

>  <S298_units>  (1) 
cal/(mol*K)

>  <Cp_T_value_list>  (1) 
[25.456247212380276, 32.451630826920365, 38.82807659626967, 44.43167960745498, 53.564007712237974, 60.4152191864225, 70.77856394067453, 75.9827260446385, 78.66059170161681]

>  <Cp_T_units>  (1) 
cal/(mol*K)

>  <T_list>  (1) 
[300.0, 400.0, 500.0, 600.0, 800.0, 1000.0, 1500.0, 2000.0, 2400.0]

>  <T_units>  (1) 
K

>  <yaml_path>  (1) 
/home/calvin/Dropbox/PersonalFolders/Calvin/HAb_Converged/rxn_1099/output/Species/rxn_1099_C=CC[C]C/rxn_1099_C=CCCC.yml

>  <frequencies_cm1>  (1) 
[116.37480021804, 237.19253993812, 274.96095919812, 295.98766824795996, 355.3184214127599, 383.7271396815999, 540.8643647591599, 675.71822247332, 787.4784085563199, 927.4413033485599, 932.80441888348, 952.67747439956, 969.3093128446, 1033.55682749852, 1042.2366969429997, 1112.03273573548, 1155.4938858257601, 1203.9198663024001, 1312.2671606813599, 1335.95139305004, 1362.3000157228798, 1392.02719517316, 1406.0427122112799, 1443.8866683098, 1474.90484100024, 1480.007011093, 1489.5315197318398, 1500.6903708768398, 1713.0724928538, 2984.30941624816, 3007.7739050866, 3011.74302260156, 3080.2137332272796, 3084.3545253752395, 3086.30474920612, 3091.3451164309995, 3105.2164267773996, 3127.1289769335194, 3206.60059804188]

>  <ZPE_kJmol>  (1) 
357.0421374234334

>  <E_elec_kJmol>  (1) 
-516028.6740144305

>  <E0_minus_Eelec_plus_ZPE_kJmol>  (1) 
0.0

>  <rxn>  (1) 
rxn_1099

>  <species_type>  (1) 
r1

>  <species_folder>  (1) 
rxn_1099_C=CC[C]C

>  <frequencies_cm1_list>  (1) 
[116.37480021804, 237.19253993812, 274.96095919812, 295.98766824795996, 355.3184214127599, 383.7271396815999, 540.8643647591599, 675.71822247332, 787.4784085563199, 927.4413033485599, 932.80441888348, 952.67747439956, 969.3093128446, 1033.55682749852, 1042.2366969429997, 1112.03273573548, 1155.4938858257601, 1203.9198663024001, 1312.2671606813599, 1335.95139305004, 1362.3000157228798, 1392.02719517316, 1406.0427122112799, 1443.8866683098, 1474.90484100024, 1480.007011093, 1489.5315197318398, 1500.6903708768398, 1713.0724928538, 2984.30941624816, 3007.7739050866, 3011.74302260156, 3080.2137332272796, 3084.3545253752395, 3086.30474920612, 3091.3451164309995, 3105.2164267773996, 3127.1289769335194, 3206.60059804188]

>  <E0_kJmol>  (1) 
-515672

>  <H298_kJmol>  (1) 
-515652

$$$$

     RDKit          3D

  9  8  0  0  0  0  0  0  0  0999 V2000
    0.5516   -0.9240   -0.7246 C   0  0  0  0  0  0  0  0  0  1  0  0
   -0.2855   -0.0380   -0.2409 C   0  0  0  0  0  0  0  0  0  2  0  0
   -0.2338    0.8918    0.9061 C   0  0  0  0  0  0  0  0  0  3  0  0
    0.3054   -1.5119   -1.6034 H   0  0  0  0  0  0  0  0  0  4  0  0
    1.5244   -1.1029   -0.2667 H   0  0  0  0  0  0  0  0  0  5  0  0
   -1.0468    0.6908    1.6075 H   0  0  0  0  0  0  0  0  0  6  0  0
    0.7154    0.8030    1.4460 H   0  0  0  0  0  0  0  0  0  7  0  0
   -0.3416    1.9266    0.5728 H   0  0  0  0  0  0  0  0  0  8  0  0
   -1.2014    0.0121   -0.8297 H   0  0  0  0  0  0  0  0  0  9  0  0
  1  5  1  0
  1  4  1  0
  1  2  1  0
  2  9  1  0
  2  3  1  0
  3  6  1  0
  3  7  1  0
  3  8  1  0
M  END
>  <rmg_smiles>  (2) 
[CH2][CH]C

>  <rmg_adjacency_list>  (2) 
1 C u0 p0 c0 {2,S} {4,S} {5,S} {6,S}
2 C u0 p0 c0 {1,S} {3,S} {7,S}
3 C u0 p0 c0 {2,S} {8,S} {9,S}
4 H u0 p0 c0 {1,S}
5 H u0 p0 c0 {1,S}
6 H u0 p0 c0 {1,S}
7 H u0 p0 c0 {2,S}
8 H u0 p0 c0 {3,S}
9 H u0 p0 c0 {3,S}


>  <multiplicity>  (2) 
1

>  <reaction>  (2) 
rxn_1099

>  <type>  (2) 
r2h

>  <role_mapnums>  (2) 
{"r2h_a": 2, "r2h_h": 9}

>  <role_mapidx>  (2) 
{"r2h_a": 1, "r2h_h": 8}

>  <ordered_mapped_smiles>  (2) 
[CH:1]([CH:2]([C:3]([H:6])([H:7])[H:8])[H:9])([H:4])[H:5]

>  <mol_properties>  (2) 
{"1": {"label": "acceptor", "atom_type": "Cs"}, "8": {"label": "a_hydrogen", "atom_type": "H0"}}

>  <level_of_theory>  (2) 
wb97xd/def2tzvp

>  <lot_method>  (2) 
wb97xd

>  <lot_basis>  (2) 
def2tzvp

>  <spin_multiplicity>  (2) 
1.0

>  <optical_isomers>  (2) 
1.0

>  <modes>  (2) 
IdealGasTranslation(mass=(42.047, 'amu')),         NonlinearRotor(             inertia = ([10.7194, 53.9495, 61.5633

>  <frequency_value>  (2) 
unknown

>  <frequency_units>  (2) 
unknown

>  <frequency_list>  (2) 
unknown

>  <arkane_path>  (2) 
/home/calvin/Dropbox/PersonalFolders/Calvin/HAb_Converged/rxn_1099/output/Species/rxn_1099_C=CC/arkane/output.py

>  <path_exists>  (2) 
True

>  <E0_value>  (2) 
-309367.8832800635

>  <E0_units>  (2) 
kJ/mol

>  <thermo_class>  (2) 
NASA

>  <Cp0_value>  (2) 
33.257888

>  <Cp0_units>  (2) 
J/(mol*K)

>  <CpInf_value>  (2) 
207.8618

>  <CpInf_units>  (2) 
J/(mol*K)

>  <Tmin_value>  (2) 
10.0

>  <Tmin_units>  (2) 
K

>  <Tmax_value>  (2) 
3000.0

>  <Tmax_units>  (2) 
K

>  <polynomials>  (2) 
[{"name": "polynomial1", "class": "NASAPolynomial", "Tmin_value": 10.0, "Tmin_units": "K", "Tmax_value": 531.9066404514887, "Tmax_units": "K", "coeffs": [4.0204367106395305, -0.0017312814973888466, 7.469369070858841e-05, -1.103989586823944e-07, 5.357411953540602e-11, -37208361.619619094, 6.984063163619424]}, {"name": "polynomial2", "class": "NASAPolynomial", "Tmin_value": 531.9066404514887, "Tmin_units": "K", "Tmax_value": 3000.0, "Tmax_units": "K", "coeffs": [-0.30746978474152303, 0.03081497539241948, -1.7087881859194207e-05, 4.635359552359225e-09, -4.926745989402899e-13, -37207901.209693715, 25.131571818199003]}]

>  <H298_value>  (2) 
-73937.54315081466

>  <H298_units>  (2) 
kcal/mol

>  <S298_value>  (2) 
63.235428095961645

>  <S298_units>  (2) 
cal/(mol*K)

>  <Cp_T_value_list>  (2) 
[15.255114438428619, 19.0471333221202, 22.6079143488244, 25.768633340780376, 30.96022164704354, 34.89993402421754, 40.97109580318192, 44.05842766532305, 45.61775865339882]

>  <Cp_T_units>  (2) 
cal/(mol*K)

>  <T_list>  (2) 
[300.0, 400.0, 500.0, 600.0, 800.0, 1000.0, 1500.0, 2000.0, 2400.0]

>  <T_units>  (2) 
K

>  <yaml_path>  (2) 
/home/calvin/Dropbox/PersonalFolders/Calvin/HAb_Converged/rxn_1099/output/Species/rxn_1099_C=CC/rxn_1099_C=CC.yml

>  <frequencies_cm1>  (2) 
[200.92112347787997, 429.72220735495995, 590.1693193567598, 925.5460154002399, 944.49202789812, 949.7315376972799, 1024.05291981564, 1068.7501272635197, 1186.76613697304, 1322.2792252779197, 1396.37399688072, 1440.26090006084, 1466.0326959668, 1481.02332492036, 1720.5094379553598, 3007.2932161142003, 3065.80679802592, 3091.5648599612396, 3111.3280437122, 3123.2628641983597, 3201.2855514042]

>  <ZPE_kJmol>  (2) 
207.8343042708976

>  <E_elec_kJmol>  (2) 
-309575.71758433443

>  <E0_minus_Eelec_plus_ZPE_kJmol>  (2) 
0.0

>  <rxn>  (2) 
rxn_1099

>  <species_type>  (2) 
p0

>  <species_folder>  (2) 
rxn_1099_C=CC

>  <frequencies_cm1_list>  (2) 
[200.92112347787997, 429.72220735495995, 590.1693193567598, 925.5460154002399, 944.49202789812, 949.7315376972799, 1024.05291981564, 1068.7501272635197, 1186.76613697304, 1322.2792252779197, 1396.37399688072, 1440.26090006084, 1466.0326959668, 1481.02332492036, 1720.5094379553598, 3007.2932161142003, 3065.80679802592, 3091.5648599612396, 3111.3280437122, 3123.2628641983597, 3201.2855514042]

>  <E0_kJmol>  (2) 
-309368

>  <H298_kJmol>  (2) 
-309355

$$$$

     RDKit          3D

 23 21  0  0  0  0  0  0  0  0999 V2000
    2.2392   -0.8595    0.6897 C   0  0  0  0  0  0  0  0  0  1  0  0
    1.4021    0.0264    1.1734 C   0  0  0  0  0  3  0  0  0  2  0  0
    1.4538    0.9562    2.3204 C   0  0  0  0  0  0  0  0  0  3  0  0
    1.9930   -1.4474   -0.1891 H   0  0  0  0  0  0  0  0  0  4  0  0
    3.2120   -1.0385    1.1476 H   0  0  0  0  0  0  0  0  0  5  0  0
    0.6409    0.7552    3.0219 H   0  0  0  0  0  0  0  0  0  6  0  0
    2.4030    0.8674    2.8603 H   0  0  0  0  0  0  0  0  0  7  0  0
    1.3460    1.9911    1.9871 H   0  0  0  0  0  0  0  0  0  8  0  0
   -0.6098   -1.2022   -2.4131 C   0  0  0  0  0  0  0  0  0  9  0  0
   -0.8751   -1.0687   -1.1167 C   0  0  0  0  0  0  0  0  0 10  0  0
   -0.8652    0.1856   -0.3316 C   0  0  0  0  0  0  0  0  0 11  0  0
   -1.9977    0.2669    0.6779 C   0  0  0  0  0  0  0  0  0 12  0  0
   -0.6703    1.4620   -1.1216 C   0  0  0  0  0  0  0  0  0 13  0  0
   -0.6228   -2.1754   -2.8870 H   0  0  0  0  0  0  0  0  0 14  0  0
   -0.3783   -0.3539   -3.0457 H   0  0  0  0  0  0  0  0  0 15  0  0
   -1.1051   -1.9642   -0.5433 H   0  0  0  0  0  0  0  0  0 16  0  0
    0.1461    0.0952    0.3660 H   0  0  0  0  0  0  0  0  0 17  0  0
   -2.0575   -0.6429    1.2787 H   0  0  0  0  0  0  0  0  0 18  0  0
   -2.9606    0.4013    0.1758 H   0  0  0  0  0  0  0  0  0 19  0  0
   -1.8539    1.1114    1.3553 H   0  0  0  0  0  0  0  0  0 20  0  0
   -1.5059    1.6332   -1.8073 H   0  0  0  0  0  0  0  0  0 21  0  0
    0.2491    1.4324   -1.7084 H   0  0  0  0  0  0  0  0  0 22  0  0
   -0.6088    2.3196   -0.4490 H   0  0  0  0  0  0  0  0  0 23  0  0
  1  4  1  0
  1  5  1  0
  1  2  1  0
  2  3  1  0
  3  6  1  0
  3  8  1  0
  3  7  1  0
  9 15  1  0
  9 14  1  0
  9 10  1  0
 10 16  1  0
 10 11  1  0
 11 13  1  0
 11 17  1  0
 11 12  1  0
 12 19  1  0
 12 18  1  0
 12 20  1  0
 13 23  1  0
 13 21  1  0
 13 22  1  0
M  RAD  1   2   2
M  END
>  <rmg_smiles>  (3) 
[CH2][CH]C(C)C.[CH2][C]C

>  <rmg_adjacency_list>  (3) 
multiplicity 2
1  C u0 p0 c0 {2,S} {3,S} {5,S} {9,S}
2  C u0 p0 c0 {1,S} {10,S} {11,S} {12,S}
3  C u0 p0 c0 {1,S} {13,S} {14,S} {15,S}
4  C u0 p0 c0 {8,S} {16,S} {17,S} {18,S}
5  C u0 p0 c0 {1,S} {6,S} {19,S}
6  C u0 p0 c0 {5,S} {20,S} {21,S}
7  C u0 p0 c0 {8,S} {22,S} {23,S}
8  C u1 p1 c0 {4,S} {7,S}
9  H u0 p0 c0 {1,S}
10 H u0 p0 c0 {2,S}
11 H u0 p0 c0 {2,S}
12 H u0 p0 c0 {2,S}
13 H u0 p0 c0 {3,S}
14 H u0 p0 c0 {3,S}
15 H u0 p0 c0 {3,S}
16 H u0 p0 c0 {4,S}
17 H u0 p0 c0 {4,S}
18 H u0 p0 c0 {4,S}
19 H u0 p0 c0 {5,S}
20 H u0 p0 c0 {6,S}
21 H u0 p0 c0 {6,S}
22 H u0 p0 c0 {7,S}
23 H u0 p0 c0 {7,S}


>  <multiplicity>  (3) 
2

>  <reaction>  (3) 
rxn_1099

>  <type>  (3) 
ts

>  <role_mapnums>  (3) 
{"*2": 17, "*1": 11, "*3": 2, "*0": 10, "*4": 1}

>  <role_mapidx>  (3) 
{"*2": 16, "*1": 10, "*3": 1, "*0": 9, "*4": 0}

>  <ordered_mapped_smiles>  (3) 
[CH:1]([CH:2][C:3]([H:6])([H:7])[H:8])([H:4])[H:5].[CH:9]([CH:10]([C:11]([C:12]([H:18])([H:19])[H:20])([C:13]([H:21])([H:22])[H:23])[H:17])[H:16])([H:14])[H:15]

>  <mol_properties>  (3) 
{"0": {"label": "*4", "atom_type": "Cs"}, "1": {"label": "*3", "atom_type": "C2s"}, "9": {"label": "*0", "atom_type": "Cs"}, "10": {"label": "*1", "atom_type": "Cs"}, "16": {"label": "*2", "atom_type": "H0"}}

>  <level_of_theory>  (3) 
wb97xd/def2tzvp

>  <lot_method>  (3) 
wb97xd

>  <lot_basis>  (3) 
def2tzvp

>  <spin_multiplicity>  (3) 
2.0

>  <optical_isomers>  (3) 
2.0

>  <modes>  (3) 
IdealGasTranslation(mass=(111.117, 'amu')),         NonlinearRotor(             inertia = ([217.519, 423.088, 519.911

>  <frequency_value>  (3) 
-1225.45

>  <frequency_units>  (3) 
cm^-1

>  <frequency_list>  (3) 
unknown

>  <arkane_path>  (3) 
/home/calvin/Dropbox/PersonalFolders/Calvin/HAb_Converged/rxn_1099/output/rxns/TS0/arkane/output.py

>  <path_exists>  (3) 
True

>  <E0_value>  (3) 
-823274.0

>  <E0_units>  (3) 
kJ/mol

>  <thermo_class>  (3) 
unknown

>  <Cp0_value>  (3) 
unknown

>  <Cp0_units>  (3) 
unknown

>  <CpInf_value>  (3) 
unknown

>  <CpInf_units>  (3) 
unknown

>  <Tmin_value>  (3) 
unknown

>  <Tmin_units>  (3) 
unknown

>  <Tmax_value>  (3) 
unknown

>  <Tmax_units>  (3) 
unknown

>  <polynomials>  (3) 
unknown

>  <H298_value>  (3) 
unknown

>  <H298_units>  (3) 
unknown

>  <S298_value>  (3) 
unknown

>  <S298_units>  (3) 
unknown

>  <Cp_T_value_list>  (3) 
unknown

>  <Cp_T_units>  (3) 
unknown

>  <T_list>  (3) 
unknown

>  <T_units>  (3) 
unknown

>  <yaml_path>  (3) 
unknown

>  <frequencies_cm1>  (3) 
unknown

>  <ZPE_kJmol>  (3) 
unknown

>  <E_elec_kJmol>  (3) 
unknown

>  <E0_minus_Eelec_plus_ZPE_kJmol>  (3) 
unknown

>  <rxn>  (3) 
unknown

>  <species_type>  (3) 
unknown

>  <species_folder>  (3) 
unknown

>  <frequencies_cm1_list>  (3) 
[]

>  <ts_imag_freq_cm1>  (3) 
-1240.3342

>  <ts_freq_out_path>  (3) 
/home/calvin/Dropbox/PersonalFolders/Calvin/HAb_Converged/rxn_1099/output/rxns/TS0/geometry/freq.out

>  <E0_kJmol>  (3) 
-823274

>  <H298_kJmol>  (3) 
unknown

$$$$

     RDKit          3D

 14 13  0  0  0  0  0  0  0  0999 V2000
    0.4808   -1.5473    1.7503 C   0  0  0  0  0  0  0  0  0  1  0  0
    0.7769   -0.3812    1.0904 C   0  0  0  0  0  0  0  0  0  2  0  0
    1.4885    0.6943    1.6102 C   0  0  0  0  0  3  0  0  0  3  0  0
    1.7498    1.9159    0.7931 C   0  0  0  0  0  0  0  0  0  4  0  0
    2.0207    0.6697    3.0097 C   0  0  0  0  0  0  0  0  0  5  0  0
   -0.0805   -2.3331    1.2642 H   0  0  0  0  0  0  0  0  0  6  0  0
    0.7942   -1.7233    2.7714 H   0  0  0  0  0  0  0  0  0  7  0  0
    0.4253   -0.2836    0.0666 H   0  0  0  0  0  0  0  0  0  8  0  0
    1.3307    2.8064    1.2745 H   0  0  0  0  0  0  0  0  0  9  0  0
    2.8257    2.0981    0.6935 H   0  0  0  0  0  0  0  0  0 10  0  0
    1.3240    1.8377   -0.2074 H   0  0  0  0  0  0  0  0  0 11  0  0
    2.5506    1.5918    3.2489 H   0  0  0  0  0  0  0  0  0 12  0  0
    2.7139   -0.1640    3.1589 H   0  0  0  0  0  0  0  0  0 13  0  0
    1.2160    0.5458    3.7410 H   0  0  0  0  0  0  0  0  0 14  0  0
  1  7  1  0
  1  6  1  0
  1  2  1  0
  2  8  1  0
  2  3  1  0
  3  4  1  0
  3  5  1  0
  4  9  1  0
  4 10  1  0
  4 11  1  0
  5 12  1  0
  5 14  1  0
  5 13  1  0
M  RAD  1   3   2
M  END
>  <rmg_smiles>  (4) 
[CH2][CH][C](C)C

>  <rmg_adjacency_list>  (4) 
multiplicity 2
1  C u0 p0 c0 {3,S} {6,S} {7,S} {8,S}
2  C u0 p0 c0 {3,S} {9,S} {10,S} {11,S}
3  C u1 p0 c0 {1,S} {2,S} {4,S}
4  C u0 p0 c0 {3,S} {5,S} {12,S}
5  C u0 p0 c0 {4,S} {13,S} {14,S}
6  H u0 p0 c0 {1,S}
7  H u0 p0 c0 {1,S}
8  H u0 p0 c0 {1,S}
9  H u0 p0 c0 {2,S}
10 H u0 p0 c0 {2,S}
11 H u0 p0 c0 {2,S}
12 H u0 p0 c0 {4,S}
13 H u0 p0 c0 {5,S}
14 H u0 p0 c0 {5,S}


>  <multiplicity>  (4) 
2

>  <reaction>  (4) 
rxn_1099

>  <type>  (4) 
r1

>  <role_mapnums>  (4) 
{}

>  <role_mapidx>  (4) 
{}

>  <ordered_mapped_smiles>  (4) 
[CH:1]([CH:2]([C:3]([C:4]([H:9])([H:10])[H:11])[C:5]([H:12])([H:13])[H:14])[H:8])([H:6])[H:7]

>  <level_of_theory>  (4) 
wb97xd/def2tzvp

>  <lot_method>  (4) 
wb97xd

>  <lot_basis>  (4) 
def2tzvp

>  <spin_multiplicity>  (4) 
2.0

>  <optical_isomers>  (4) 
1.0

>  <modes>  (4) 
IdealGasTranslation(mass=(69.0704, 'amu')),         NonlinearRotor(             inertia = ([61.3549, 130.413, 185.559

>  <frequency_value>  (4) 
unknown

>  <frequency_units>  (4) 
unknown

>  <frequency_list>  (4) 
unknown

>  <arkane_path>  (4) 
/home/calvin/Dropbox/PersonalFolders/Calvin/HAb_Converged/rxn_1099/output/Species/rxn_1099_C=C[C][C]C/arkane/output.py

>  <path_exists>  (4) 
True

>  <E0_value>  (4) 
-514025.97553217126

>  <E0_units>  (4) 
kJ/mol

>  <thermo_class>  (4) 
NASA

>  <Cp0_value>  (4) 
33.257888

>  <Cp0_units>  (4) 
J/(mol*K)

>  <CpInf_value>  (4) 
332.57888

>  <CpInf_units>  (4) 
J/(mol*K)

>  <Tmin_value>  (4) 
10.0

>  <Tmin_units>  (4) 
K

>  <Tmax_value>  (4) 
3000.0

>  <Tmax_units>  (4) 
K

>  <polynomials>  (4) 
[{"name": "polynomial1", "class": "NASAPolynomial", "Tmin_value": 10.0, "Tmin_units": "K", "Tmax_value": 869.6911871758548, "Tmax_units": "K", "coeffs": [3.7251498211935314, 0.026125072699037726, 2.9283407217007013e-05, -5.0541004067495976e-08, 2.0232394991621792e-11, -61823043.87094501, 10.742032048047015]}, {"name": "polynomial2", "class": "NASAPolynomial", "Tmin_value": 869.6911871758548, "Tmin_units": "K", "Tmax_value": 3000.0, "Tmax_units": "K", "coeffs": [2.0494138870547256, 0.045662644656750136, -2.4818339925590512e-05, 6.5720381582829026e-09, -6.81375100911511e-13, -61823199.79642893, 16.02035028961216]}]

>  <H298_value>  (4) 
-122850.30932163808

>  <H298_units>  (4) 
kcal/mol

>  <S298_value>  (4) 
80.76827757208122

>  <S298_units>  (4) 
cal/(mol*K)

>  <Cp_T_value_list>  (4) 
[25.82862423026794, 32.08116189587458, 37.86708859000111, 43.01801606761932, 51.223791755505, 57.2005103917234, 66.43883807198236, 71.09359859213441, 73.3906918515767]

>  <Cp_T_units>  (4) 
cal/(mol*K)

>  <T_list>  (4) 
[300.0, 400.0, 500.0, 600.0, 800.0, 1000.0, 1500.0, 2000.0, 2400.0]

>  <T_units>  (4) 
K

>  <yaml_path>  (4) 
/home/calvin/Dropbox/PersonalFolders/Calvin/HAb_Converged/rxn_1099/output/Species/rxn_1099_C=C[C][C]C/rxn_1099_C=CCCC.yml

>  <frequencies_cm1>  (4) 
[55.12815814896, 159.32092640931998, 226.55557967744, 278.64853031495994, 356.053188842, 383.12971195875997, 537.2797984221199, 582.97958572672, 765.24311009016, 793.8921728451999, 933.2782408705599, 980.1316817089199, 985.8381465098398, 986.5797809243999, 1056.26594795176, 1065.45397430992, 1225.2624566769598, 1249.45484595932, 1354.32057878104, 1397.4040446787199, 1400.8306703534, 1443.5021171318801, 1461.0884665363997, 1469.6378632598, 1480.13061682876, 1493.1229530541998, 1520.0758704352, 2982.7574775658395, 2995.00817937672, 3028.9654217841194, 3046.0710822162396, 3091.49619010804, 3094.4695947516, 3117.3709907937996, 3132.2105460703197, 3223.1843675896794]

>  <ZPE_kJmol>  (4) 
319.11677270462053

>  <E_elec_kJmol>  (4) 
-514345.0923048759

>  <E0_minus_Eelec_plus_ZPE_kJmol>  (4) 
0.0

>  <rxn>  (4) 
rxn_1099

>  <species_type>  (4) 
p1

>  <species_folder>  (4) 
rxn_1099_C=C[C][C]C

>  <frequencies_cm1_list>  (4) 
[55.12815814896, 159.32092640931998, 226.55557967744, 278.64853031495994, 356.053188842, 383.12971195875997, 537.2797984221199, 582.97958572672, 765.24311009016, 793.8921728451999, 933.2782408705599, 980.1316817089199, 985.8381465098398, 986.5797809243999, 1056.26594795176, 1065.45397430992, 1225.2624566769598, 1249.45484595932, 1354.32057878104, 1397.4040446787199, 1400.8306703534, 1443.5021171318801, 1461.0884665363997, 1469.6378632598, 1480.13061682876, 1493.1229530541998, 1520.0758704352, 2982.7574775658395, 2995.00817937672, 3028.9654217841194, 3046.0710822162396, 3091.49619010804, 3094.4695947516, 3117.3709907937996, 3132.2105460703197, 3223.1843675896794]

>  <E0_kJmol>  (4) 
-514026

>  <H298_kJmol>  (4) 
-514006

$$$$

     RDKit          3D

  8  7  0  0  0  0  0  0  0  0999 V2000
    1.4097   -0.3618   -0.1144 C   0  0  0  0  0  0  0  0  0  1  0  0
    0.1804   -0.1811   -0.5085 C   0  0  0  0  0  3  0  0  0  2  0  0
   -1.1132    0.2655    0.0162 C   0  0  0  0  0  0  0  0  0  3  0  0
    2.1849   -0.7256   -0.7809 H   0  0  0  0  0  0  0  0  0  4  0  0
    1.7118   -0.1519    0.9143 H   0  0  0  0  0  0  0  0  0  5  0  0
   -1.8662   -0.5198   -0.0756 H   0  0  0  0  0  0  0  0  0  6  0  0
   -1.0300    0.5356    1.0772 H   0  0  0  0  0  0  0  0  0  7  0  0
   -1.4772    1.1391   -0.5284 H   0  0  0  0  0  0  0  0  0  8  0  0
  1  5  1  0
  1  4  1  0
  1  2  1  0
  2  3  1  0
  3  6  1  0
  3  7  1  0
  3  8  1  0
M  RAD  1   2   2
M  END
>  <rmg_smiles>  (5) 
[CH2][C]C

>  <rmg_adjacency_list>  (5) 
multiplicity 2
1 C u0 p0 c0 {3,S} {4,S} {5,S} {6,S}
2 C u0 p0 c0 {3,S} {7,S} {8,S}
3 C u1 p1 c0 {1,S} {2,S}
4 H u0 p0 c0 {1,S}
5 H u0 p0 c0 {1,S}
6 H u0 p0 c0 {1,S}
7 H u0 p0 c0 {2,S}
8 H u0 p0 c0 {2,S}


>  <multiplicity>  (5) 
2

>  <reaction>  (5) 
rxn_1099

>  <type>  (5) 
r2

>  <role_mapnums>  (5) 
{}

>  <role_mapidx>  (5) 
{}

>  <ordered_mapped_smiles>  (5) 
[CH:1]([CH:2][C:3]([H:6])([H:7])[H:8])([H:4])[H:5]

>  <level_of_theory>  (5) 
wb97xd/def2tzvp

>  <lot_method>  (5) 
wb97xd

>  <lot_basis>  (5) 
def2tzvp

>  <spin_multiplicity>  (5) 
2.0

>  <optical_isomers>  (5) 
1.0

>  <modes>  (5) 
IdealGasTranslation(mass=(41.0391, 'amu')),         NonlinearRotor(             inertia = ([6.71616, 57.9316, 61.5152

>  <frequency_value>  (5) 
unknown

>  <frequency_units>  (5) 
unknown

>  <frequency_list>  (5) 
unknown

>  <arkane_path>  (5) 
/home/calvin/Dropbox/PersonalFolders/Calvin/HAb_Converged/rxn_1099/output/Species/rxn_1099_C=[C]C/arkane/output.py

>  <path_exists>  (5) 
True

>  <E0_value>  (5) 
-307613.2565359382

>  <E0_units>  (5) 
kJ/mol

>  <thermo_class>  (5) 
NASA

>  <Cp0_value>  (5) 
33.257888

>  <Cp0_units>  (5) 
J/(mol*K)

>  <CpInf_value>  (5) 
182.918384

>  <CpInf_units>  (5) 
J/(mol*K)

>  <Tmin_value>  (5) 
10.0

>  <Tmin_units>  (5) 
K

>  <Tmax_value>  (5) 
3000.0

>  <Tmax_units>  (5) 
K

>  <polynomials>  (5) 
[{"name": "polynomial1", "class": "NASAPolynomial", "Tmin_value": 10.0, "Tmin_units": "K", "Tmax_value": 538.1692736306433, "Tmax_units": "K", "coeffs": [3.9303886196913362, 0.005418243692389709, 4.114996360384344e-05, -6.443969944539894e-08, 3.128163040505741e-11, -36997327.50077409, 7.425360615295283]}, {"name": "polynomial2", "class": "NASAPolynomial", "Tmin_value": 538.1692736306433, "Tmin_units": "K", "Tmax_value": 3000.0, "Tmax_units": "K", "coeffs": [1.273053533371181, 0.025169201287411135, -1.3900535286108769e-05, 3.755192168085655e-09, -3.9753238140025035e-13, -36997041.482044026, 18.59902444170328]}]

>  <H298_value>  (5) 
-73518.02602426113

>  <H298_units>  (5) 
kcal/mol

>  <S298_value>  (5) 
65.08531904367933

>  <S298_units>  (5) 
cal/(mol*K)

>  <Cp_T_value_list>  (5) 
[15.446293369595749, 18.596972462105906, 21.515764657035927, 24.104780904171406, 28.36121466049163, 31.59534994857027, 36.5882810723973, 39.12876014023866, 40.40916769152129]

>  <Cp_T_units>  (5) 
cal/(mol*K)

>  <T_list>  (5) 
[300.0, 400.0, 500.0, 600.0, 800.0, 1000.0, 1500.0, 2000.0, 2400.0]

>  <T_units>  (5) 
K

>  <yaml_path>  (5) 
/home/calvin/Dropbox/PersonalFolders/Calvin/HAb_Converged/rxn_1099/output/Species/rxn_1099_C=[C]C/rxn_1099_C=CC.yml

>  <frequencies_cm1>  (5) 
[176.04890264884, 312.71564448747995, 484.0194602802, 893.4634599852, 895.1939402858399, 932.7632169715598, 1043.3422815795197, 1098.3399670074, 1378.28635754784, 1408.11654177792, 1443.1999697778, 1458.9940360138, 1748.70527967928, 2967.7256467003594, 3032.41264841476, 3055.0530990147995, 3082.9330594139997, 3144.5573856756796]

>  <ZPE_kJmol>  (5) 
170.8020872739218

>  <E_elec_kJmol>  (5) 
-307784.0586232121

>  <E0_minus_Eelec_plus_ZPE_kJmol>  (5) 
0.0

>  <rxn>  (5) 
rxn_1099

>  <species_type>  (5) 
r0

>  <species_folder>  (5) 
rxn_1099_C=[C]C

>  <frequencies_cm1_list>  (5) 
[176.04890264884, 312.71564448747995, 484.0194602802, 893.4634599852, 895.1939402858399, 932.7632169715598, 1043.3422815795197, 1098.3399670074, 1378.28635754784, 1408.11654177792, 1443.1999697778, 1458.9940360138, 1748.70527967928, 2967.7256467003594, 3032.41264841476, 3055.0530990147995, 3082.9330594139997, 3144.5573856756796]

>  <E0_kJmol>  (5) 
-307613

>  <H298_kJmol>  (5) 
-307599

$$$$
