
     RDKit          3D

  8  7  0  0  0  0  0  0  0  0999 V2000
    0.5788   -0.1082   -0.4720 C   0  0  0  0  0  0  0  0  0  1  0  0
   -0.5834    0.0655    0.4627 C   0  0  0  0  0  0  0  0  0  2  0  0
    0.4862    0.5406   -1.3448 H   0  0  0  0  0  0  0  0  0  3  0  0
    1.5228    0.1335    0.0199 H   0  0  0  0  0  0  0  0  0  4  0  0
    0.6532   -1.1389   -0.8359 H   0  0  0  0  0  0  0  0  0  5  0  0
   -0.5428    1.1158    0.7452 H   0  0  0  0  0  0  0  0  0  6  0  0
   -0.5069   -0.4516    1.4173 H   0  0  0  0  0  0  0  0  0  7  0  0
   -1.5711   -0.0337    0.0164 H   0  0  0  0  0  0  0  0  0  8  0  0
  1  5  1  0
  1  4  1  0
  1  3  1  0
  1  2  1  0
  2  8  1  0
  2  7  1  0
  2  6  1  0
M  END
>  <rmg_smiles>  (1) 
CC

>  <rmg_adjacency_list>  (1) 
1 C u0 p0 c0 {2,S} {3,S} {4,S} {5,S}
2 C u0 p0 c0 {1,S} {6,S} {7,S} {8,S}
3 H u0 p0 c0 {1,S}
4 H u0 p0 c0 {1,S}
5 H u0 p0 c0 {1,S}
6 H u0 p0 c0 {2,S}
7 H u0 p0 c0 {2,S}
8 H u0 p0 c0 {2,S}


>  <multiplicity>  (1) 
1

>  <reaction>  (1) 
rxn_326

>  <type>  (1) 
r1h

>  <role_mapnums>  (1) 
{"r1h_a": 2, "r1h_h": 6}

>  <role_mapidx>  (1) 
{"r1h_a": 1, "r1h_h": 5}

>  <ordered_mapped_smiles>  (1) 
[C:1]([C:2]([H:6])([H:7])[H:8])([H:3])([H:4])[H:5]

>  <mol_properties>  (1) 
{"1": {"label": "donator", "atom_type": "Cs"}, "5": {"label": "d_hydrogen", "atom_type": "H0"}}

>  <level_of_theory>  (1) 
wb97xd/def2tzvp

>  <lot_method>  (1) 
wb97xd

>  <lot_basis>  (1) 
def2tzvp

>  <spin_multiplicity>  (1) 
1.0

>  <optical_isomers>  (1) 
1.0

>  <modes>  (1) 
IdealGasTranslation(mass=(30.0469, 'amu')),         NonlinearRotor(             inertia = ([6.25566, 25.1393, 25.1393

>  <frequency_value>  (1) 
unknown

>  <frequency_units>  (1) 
unknown

>  <frequency_list>  (1) 
unknown

>  <arkane_path>  (1) 
/home/calvin/Dropbox/PersonalFolders/Calvin/HAb_Converged/rxn_326/output/Species/rxn_326_CC/arkane/output.py

>  <path_exists>  (1) 
True

>  <E0_value>  (1) 
-209409.0952137841

>  <E0_units>  (1) 
kJ/mol

>  <thermo_class>  (1) 
NASA

>  <Cp0_value>  (1) 
33.257888

>  <Cp0_units>  (1) 
J/(mol*K)

>  <CpInf_value>  (1) 
182.918384

>  <CpInf_units>  (1) 
J/(mol*K)

>  <Tmin_value>  (1) 
10.0

>  <Tmin_units>  (1) 
K

>  <Tmax_value>  (1) 
3000.0

>  <Tmax_units>  (1) 
K

>  <polynomials>  (1) 
[{"name": "polynomial1", "class": "NASAPolynomial", "Tmin_value": 10.0, "Tmin_units": "K", "Tmax_value": 746.6686841225998, "Tmax_units": "K", "coeffs": [4.05949155328205, -0.003835565665241399, 5.3186040380635144e-05, -6.162047637406245e-08, 2.3242210517060023e-11, -25186098.42214424, 3.537324504259843]}, {"name": "polynomial2", "class": "NASAPolynomial", "Tmin_value": 746.6686841225998, "Tmin_units": "K", "Tmax_value": 3000.0, "Tmax_units": "K", "coeffs": [-1.046496014036793, 0.026500176421266477, -1.3747367898389822e-05, 3.490635384402257e-09, -3.493819827122593e-13, -25185419.059970565, 26.122432242478077]}]

>  <H298_value>  (1) 
-50047.2003571238

>  <H298_units>  (1) 
kcal/mol

>  <S298_value>  (1) 
54.420548043106656

>  <S298_units>  (1) 
cal/(mol*K)

>  <Cp_T_value_list>  (1) 
[12.360572544544063, 15.274308747535915, 18.259044378417013, 21.07888414556187, 25.832548078118208, 29.50517950077797, 35.34115403896942, 38.351806873475496, 39.80767330504735]

>  <Cp_T_units>  (1) 
cal/(mol*K)

>  <T_list>  (1) 
[300.0, 400.0, 500.0, 600.0, 800.0, 1000.0, 1500.0, 2000.0, 2400.0]

>  <T_units>  (1) 
K

>  <yaml_path>  (1) 
/home/calvin/Dropbox/PersonalFolders/Calvin/HAb_Converged/rxn_326/output/Species/rxn_326_CC/rxn_326_CC.yml

>  <frequencies_cm1>  (1) 
[304.49586305944, 822.3970289085198, 822.4107628791601, 1005.43652261312, 1210.79371860772, 1210.8005855930398, 1393.77140944444, 1414.4616362136, 1489.39418002544, 1489.4010470107598, 1490.3006220876798, 1490.3006220876798, 3015.21771717348, 3016.07609033848, 3072.8111230523195, 3072.8179900376404, 3096.4266855677993, 3096.4335525531196]

>  <ZPE_kJmol>  (1) 
194.47545128409476

>  <E_elec_kJmol>  (1) 
-209603.57066506823

>  <E0_minus_Eelec_plus_ZPE_kJmol>  (1) 
0.0

>  <rxn>  (1) 
rxn_326

>  <species_type>  (1) 
r1

>  <species_folder>  (1) 
rxn_326_CC

>  <frequencies_cm1_list>  (1) 
[304.49586305944, 822.3970289085198, 822.4107628791601, 1005.43652261312, 1210.79371860772, 1210.8005855930398, 1393.77140944444, 1414.4616362136, 1489.39418002544, 1489.4010470107598, 1490.3006220876798, 1490.3006220876798, 3015.21771717348, 3016.07609033848, 3072.8111230523195, 3072.8179900376404, 3096.4266855677993, 3096.4335525531196]

>  <E0_kJmol>  (1) 
-209409

>  <H298_kJmol>  (1) 
-209397

$$$$

     RDKit          3D

  7  6  0  0  0  0  0  0  0  0999 V2000
   -0.9740    0.1915    0.7969 C   0  0  0  0  0  0  0  0  0  1  0  0
    0.0400   -0.3895   -0.1465 C   0  0  0  0  0  0  0  0  0  2  0  0
    0.9419    0.1942   -0.6575 O   0  0  0  0  0  0  0  0  0  3  0  0
   -0.7907    1.2510    0.9737 H   0  0  0  0  0  0  0  0  0  4  0  0
   -1.9710    0.0424    0.3768 H   0  0  0  0  0  0  0  0  0  5  0  0
   -0.9380   -0.3634    1.7369 H   0  0  0  0  0  0  0  0  0  6  0  0
   -0.1008   -1.4499   -0.3560 H   0  0  0  0  0  0  0  0  0  7  0  0
  1  5  1  0
  1  4  1  0
  1  6  1  0
  1  2  1  0
  2  7  1  0
  2  3  1  0
M  END
>  <rmg_smiles>  (2) 
C[CH]O

>  <rmg_adjacency_list>  (2) 
1 O u0 p2 c0 {3,S}
2 C u0 p0 c0 {3,S} {4,S} {5,S} {6,S}
3 C u0 p0 c0 {1,S} {2,S} {7,S}
4 H u0 p0 c0 {2,S}
5 H u0 p0 c0 {2,S}
6 H u0 p0 c0 {2,S}
7 H u0 p0 c0 {3,S}


>  <multiplicity>  (2) 
1

>  <reaction>  (2) 
rxn_326

>  <type>  (2) 
r2h

>  <role_mapnums>  (2) 
{"r2h_a": 2, "r2h_h": 7}

>  <role_mapidx>  (2) 
{"r2h_a": 1, "r2h_h": 6}

>  <ordered_mapped_smiles>  (2) 
[C:1]([CH:2]([OH:3])[H:7])([H:4])([H:5])[H:6]

>  <mol_properties>  (2) 
{"1": {"label": "acceptor", "atom_type": "Cs"}, "6": {"label": "a_hydrogen", "atom_type": "H0"}}

>  <level_of_theory>  (2) 
wb97xd/def2tzvp

>  <lot_method>  (2) 
wb97xd

>  <lot_basis>  (2) 
def2tzvp

>  <spin_multiplicity>  (2) 
1.0

>  <optical_isomers>  (2) 
1.0

>  <modes>  (2) 
IdealGasTranslation(mass=(44.0262, 'amu')),         NonlinearRotor(             inertia = ([8.78933, 49.4181, 55.1019

>  <frequency_value>  (2) 
unknown

>  <frequency_units>  (2) 
unknown

>  <frequency_list>  (2) 
unknown

>  <arkane_path>  (2) 
/home/calvin/Dropbox/PersonalFolders/Calvin/HAb_Converged/rxn_326/output/Species/rxn_326_CC=O/arkane/output.py

>  <path_exists>  (2) 
True

>  <E0_value>  (2) 
-403770.1896465916

>  <E0_units>  (2) 
kJ/mol

>  <thermo_class>  (2) 
NASA

>  <Cp0_value>  (2) 
33.257888

>  <Cp0_units>  (2) 
J/(mol*K)

>  <CpInf_value>  (2) 
157.97496800000002

>  <CpInf_units>  (2) 
J/(mol*K)

>  <Tmin_value>  (2) 
10.0

>  <Tmin_units>  (2) 
K

>  <Tmax_value>  (2) 
3000.0

>  <Tmax_units>  (2) 
K

>  <polynomials>  (2) 
[{"name": "polynomial1", "class": "NASAPolynomial", "Tmin_value": 10.0, "Tmin_units": "K", "Tmax_value": 551.7368857165849, "Tmax_units": "K", "coeffs": [3.97507673873536, 0.0013024114860969774, 4.26202346281644e-05, -6.20396934088937e-08, 2.909703548783593e-11, -48562335.21276312, 7.1115196041382465]}, {"name": "polynomial2", "class": "NASAPolynomial", "Tmin_value": 551.7368857165849, "Tmin_units": "K", "Tmax_value": 3000.0, "Tmax_units": "K", "coeffs": [1.253916366948188, 0.02103096863478627, -1.101717280527888e-05, 2.7726483449040734e-09, -2.712718236361615e-13, -48562034.9489899, 18.621232079227195]}]

>  <H298_value>  (2) 
-96500.38809812289

>  <H298_units>  (2) 
kcal/mol

>  <S298_value>  (2) 
62.69347809778407

>  <S298_units>  (2) 
cal/(mol*K)

>  <Cp_T_value_list>  (2) 
[13.437958478765879, 16.075750628949308, 18.57033382696412, 20.8061525224228, 24.51454443177339, 27.362022612100347, 31.78756397344111, 33.95738468130023, 34.97139336232206]

>  <Cp_T_units>  (2) 
cal/(mol*K)

>  <T_list>  (2) 
[300.0, 400.0, 500.0, 600.0, 800.0, 1000.0, 1500.0, 2000.0, 2400.0]

>  <T_units>  (2) 
K

>  <yaml_path>  (2) 
/home/calvin/Dropbox/PersonalFolders/Calvin/HAb_Converged/rxn_326/output/Species/rxn_326_CC=O/rxn_326_CC=O.yml

>  <frequencies_cm1>  (2) 
[154.22562330188, 509.85992603936, 771.9521547477999, 887.042828711, 1124.5718509298, 1132.0911998551999, 1368.1506872155198, 1416.2127174702, 1447.6566432504799, 1456.3502466656, 1831.5073886678397, 2863.5603463812795, 3014.3936789350796, 3081.3536527904, 3132.28608290884]

>  <ZPE_kJmol>  (2) 
144.69564018265137

>  <E_elec_kJmol>  (2) 
-403914.8852867742

>  <E0_minus_Eelec_plus_ZPE_kJmol>  (2) 
0.0

>  <rxn>  (2) 
rxn_326

>  <species_type>  (2) 
p0

>  <species_folder>  (2) 
rxn_326_CC=O

>  <frequencies_cm1_list>  (2) 
[154.22562330188, 509.85992603936, 771.9521547477999, 887.042828711, 1124.5718509298, 1132.0911998551999, 1368.1506872155198, 1416.2127174702, 1447.6566432504799, 1456.3502466656, 1831.5073886678397, 2863.5603463812795, 3014.3936789350796, 3081.3536527904, 3132.28608290884]

>  <E0_kJmol>  (2) 
-403770

>  <H298_kJmol>  (2) 
-403758

$$$$

     RDKit          3D

 14 12  0  0  0  0  0  0  0  0999 V2000
   -1.1746    1.5744    0.7976 C   0  0  0  0  0  0  0  0  0  1  0  0
   -0.1607    0.9934   -0.1459 C   0  0  0  0  0  0  0  0  0  2  0  0
    0.7413    1.5771   -0.6568 O   0  0  0  0  0  0  0  0  0  3  0  0
   -0.9913    2.6339    0.9744 H   0  0  0  0  0  0  0  0  0  4  0  0
   -2.1717    1.4253    0.3775 H   0  0  0  0  0  0  0  0  0  5  0  0
   -1.1386    1.0196    1.7376 H   0  0  0  0  0  0  0  0  0  6  0  0
    0.7797   -1.8387   -1.7051 C   0  0  0  0  0  0  0  0  0  7  0  0
   -0.3825   -1.6650   -0.7704 C   0  0  0  0  0  3  0  0  0  8  0  0
    0.6871   -1.1899   -2.5779 H   0  0  0  0  0  0  0  0  0  9  0  0
    1.7237   -1.5970   -1.2133 H   0  0  0  0  0  0  0  0  0 10  0  0
    0.8541   -2.8694   -2.0690 H   0  0  0  0  0  0  0  0  0 11  0  0
   -0.3286   -0.2722   -0.3959 H   0  0  0  0  0  0  0  0  0 12  0  0
   -0.3061   -2.1821    0.1842 H   0  0  0  0  0  0  0  0  0 13  0  0
   -1.3702   -1.7642   -1.2167 H   0  0  0  0  0  0  0  0  0 14  0  0
  1  5  1  0
  1  4  1  0
  1  6  1  0
  1  2  1  0
  2 12  1  0
  2  3  1  0
  7  8  1  0
  7 11  1  0
  7  9  1  0
  7 10  1  0
  8 14  1  0
  8 13  1  0
M  RAD  1   8   2
M  END
>  <rmg_smiles>  (3) 
C[CH]O.[CH2]C

>  <rmg_adjacency_list>  (3) 
multiplicity 2
1  O u0 p2 c0 {5,S}
2  C u0 p0 c0 {5,S} {6,S} {7,S} {8,S}
3  C u0 p0 c0 {4,S} {9,S} {10,S} {11,S}
4  C u1 p0 c0 {3,S} {13,S} {14,S}
5  C u0 p0 c0 {1,S} {2,S} {12,S}
6  H u0 p0 c0 {2,S}
7  H u0 p0 c0 {2,S}
8  H u0 p0 c0 {2,S}
9  H u0 p0 c0 {3,S}
10 H u0 p0 c0 {3,S}
11 H u0 p0 c0 {3,S}
12 H u0 p0 c0 {5,S}
13 H u0 p0 c0 {4,S}
14 H u0 p0 c0 {4,S}


>  <multiplicity>  (3) 
2

>  <reaction>  (3) 
rxn_326

>  <type>  (3) 
ts

>  <role_mapnums>  (3) 
{"*2": 12, "*1": 2, "*3": 8, "*0": 3, "*4": 7}

>  <role_mapidx>  (3) 
{"*2": 11, "*1": 1, "*3": 7, "*0": 2, "*4": 6}

>  <ordered_mapped_smiles>  (3) 
[C:1]([CH:2]([OH:3])[H:12])([H:4])([H:5])[H:6].[C:7]([C:8]([H:13])[H:14])([H:9])([H:10])[H:11]

>  <mol_properties>  (3) 
{"1": {"label": "*1", "atom_type": "Cs"}, "2": {"label": "*0", "atom_type": "O2s"}, "6": {"label": "*4", "atom_type": "Cs"}, "7": {"label": "*3", "atom_type": "Cs"}, "11": {"label": "*2", "atom_type": "H0"}}

>  <level_of_theory>  (3) 
wb97xd/def2tzvp

>  <lot_method>  (3) 
wb97xd

>  <lot_basis>  (3) 
def2tzvp

>  <spin_multiplicity>  (3) 
2.0

>  <optical_isomers>  (3) 
1.0

>  <modes>  (3) 
IdealGasTranslation(mass=(73.0653, 'amu')),         NonlinearRotor(             inertia = ([63.592, 230.365, 284.429

>  <frequency_value>  (3) 
-1652.19

>  <frequency_units>  (3) 
cm^-1

>  <frequency_list>  (3) 
unknown

>  <arkane_path>  (3) 
/home/calvin/Dropbox/PersonalFolders/Calvin/HAb_Converged/rxn_326/output/rxns/TS0/arkane/output.py

>  <path_exists>  (3) 
True

>  <E0_value>  (3) 
-611419.0

>  <E0_units>  (3) 
kJ/mol

>  <thermo_class>  (3) 
unknown

>  <Cp0_value>  (3) 
unknown

>  <Cp0_units>  (3) 
unknown

>  <CpInf_value>  (3) 
unknown

>  <CpInf_units>  (3) 
unknown

>  <Tmin_value>  (3) 
unknown

>  <Tmin_units>  (3) 
unknown

>  <Tmax_value>  (3) 
unknown

>  <Tmax_units>  (3) 
unknown

>  <polynomials>  (3) 
unknown

>  <H298_value>  (3) 
unknown

>  <H298_units>  (3) 
unknown

>  <S298_value>  (3) 
unknown

>  <S298_units>  (3) 
unknown

>  <Cp_T_value_list>  (3) 
unknown

>  <Cp_T_units>  (3) 
unknown

>  <T_list>  (3) 
unknown

>  <T_units>  (3) 
unknown

>  <yaml_path>  (3) 
unknown

>  <frequencies_cm1>  (3) 
unknown

>  <ZPE_kJmol>  (3) 
unknown

>  <E_elec_kJmol>  (3) 
unknown

>  <E0_minus_Eelec_plus_ZPE_kJmol>  (3) 
unknown

>  <rxn>  (3) 
unknown

>  <species_type>  (3) 
unknown

>  <species_folder>  (3) 
unknown

>  <frequencies_cm1_list>  (3) 
[]

>  <ts_imag_freq_cm1>  (3) 
-1672.2547

>  <ts_freq_out_path>  (3) 
/home/calvin/Dropbox/PersonalFolders/Calvin/HAb_Converged/rxn_326/output/rxns/TS0/geometry/freq.out

>  <E0_kJmol>  (3) 
-611419

>  <H298_kJmol>  (3) 
unknown

$$$$

     RDKit          3D

  7  6  0  0  0  0  0  0  0  0999 V2000
   -0.6201    0.0189   -0.0017 C   0  0  0  0  0  0  0  0  0  1  0  0
    0.8589   -0.0553    0.0500 C   0  0  0  0  0  3  0  0  0  2  0  0
   -1.0738   -0.9730   -0.0559 H   0  0  0  0  0  0  0  0  0  3  0  0
   -0.9680    0.5706   -0.8872 H   0  0  0  0  0  0  0  0  0  4  0  0
   -1.0303    0.5369    0.8678 H   0  0  0  0  0  0  0  0  0  5  0  0
    1.3939   -0.8386   -0.4695 H   0  0  0  0  0  0  0  0  0  6  0  0
    1.4394    0.7404    0.4965 H   0  0  0  0  0  0  0  0  0  7  0  0
  1  5  1  0
  1  4  1  0
  1  3  1  0
  1  2  1  0
  2  7  1  0
  2  6  1  0
M  RAD  1   2   2
M  END
>  <rmg_smiles>  (4) 
C[CH2]

>  <rmg_adjacency_list>  (4) 
multiplicity 2
1 C u0 p0 c0 {2,S} {3,S} {4,S} {5,S}
2 C u1 p0 c0 {1,S} {6,S} {7,S}
3 H u0 p0 c0 {1,S}
4 H u0 p0 c0 {1,S}
5 H u0 p0 c0 {1,S}
6 H u0 p0 c0 {2,S}
7 H u0 p0 c0 {2,S}


>  <multiplicity>  (4) 
2

>  <reaction>  (4) 
rxn_326

>  <type>  (4) 
r1

>  <role_mapnums>  (4) 
{}

>  <role_mapidx>  (4) 
{}

>  <ordered_mapped_smiles>  (4) 
[C:1]([C:2]([H:6])[H:7])([H:3])([H:4])[H:5]

>  <level_of_theory>  (4) 
wb97xd/def2tzvp

>  <lot_method>  (4) 
wb97xd

>  <lot_basis>  (4) 
def2tzvp

>  <spin_multiplicity>  (4) 
2.0

>  <optical_isomers>  (4) 
1.0

>  <modes>  (4) 
IdealGasTranslation(mass=(29.0391, 'amu')),         NonlinearRotor(             inertia = ([4.86051, 22.0602, 23.8144

>  <frequency_value>  (4) 
unknown

>  <frequency_units>  (4) 
unknown

>  <frequency_list>  (4) 
unknown

>  <arkane_path>  (4) 
/home/calvin/Dropbox/PersonalFolders/Calvin/HAb_Converged/rxn_326/output/Species/rxn_326_C[CH2]/arkane/output.py

>  <path_exists>  (4) 
True

>  <E0_value>  (4) 
-207679.78865121285

>  <E0_units>  (4) 
kJ/mol

>  <thermo_class>  (4) 
NASA

>  <Cp0_value>  (4) 
33.257888

>  <Cp0_units>  (4) 
J/(mol*K)

>  <CpInf_value>  (4) 
157.97496800000002

>  <CpInf_units>  (4) 
J/(mol*K)

>  <Tmin_value>  (4) 
10.0

>  <Tmin_units>  (4) 
K

>  <Tmax_value>  (4) 
3000.0

>  <Tmax_units>  (4) 
K

>  <polynomials>  (4) 
[{"name": "polynomial1", "class": "NASAPolynomial", "Tmin_value": 10.0, "Tmin_units": "K", "Tmax_value": 487.87976470861213, "Tmax_units": "K", "coeffs": [3.9121871353579607, 0.009303342355112522, -1.0632548237956822e-05, 4.8831908404358495e-08, -4.7450160133634566e-11, -24978109.370781355, 5.932423398139755]}, {"name": "polynomial2", "class": "NASAPolynomial", "Tmin_value": 487.87976470861213, "Tmin_units": "K", "Tmax_value": 3000.0, "Tmax_units": "K", "coeffs": [1.255601804674027, 0.02015925973571526, -1.042095542288469e-05, 2.645655029251924e-09, -2.6467461504495006e-13, -24977720.132981308, 18.174806831505954]}]

>  <H298_value>  (4) 
-49633.563072244775

>  <H298_units>  (4) 
kcal/mol

>  <S298_value>  (4) 
61.32124798502571

>  <S298_units>  (4) 
cal/(mol*K)

>  <Cp_T_value_list>  (4) 
[13.275286080102546, 15.585331501205383, 17.97260864331377, 20.143861899983392, 23.766518336877798, 26.578661465366384, 31.07297867985595, 33.426295758137194, 34.588101279891]

>  <Cp_T_units>  (4) 
cal/(mol*K)

>  <T_list>  (4) 
[300.0, 400.0, 500.0, 600.0, 800.0, 1000.0, 1500.0, 2000.0, 2400.0]

>  <T_units>  (4) 
K

>  <yaml_path>  (4) 
/home/calvin/Dropbox/PersonalFolders/Calvin/HAb_Converged/rxn_326/output/Species/rxn_326_C[CH2]/rxn_326_CCH2.yml

>  <frequencies_cm1>  (4) 
[107.07690209476, 475.05117745227994, 809.2398850354, 971.27327064612, 1064.95268438156, 1183.6279246817999, 1386.8220203006, 1452.9442219468801, 1466.90480310244, 1470.74344789632, 2948.7315653052397, 3035.3173832051198, 3081.4978594821196, 3128.7358514984, 3230.1062887922394]

>  <ZPE_kJmol>  (4) 
154.3962225328414

>  <E_elec_kJmol>  (4) 
-207834.1848737457

>  <E0_minus_Eelec_plus_ZPE_kJmol>  (4) 
0.0

>  <rxn>  (4) 
rxn_326

>  <species_type>  (4) 
p1

>  <species_folder>  (4) 
rxn_326_C[CH2]

>  <frequencies_cm1_list>  (4) 
[107.07690209476, 475.05117745227994, 809.2398850354, 971.27327064612, 1064.95268438156, 1183.6279246817999, 1386.8220203006, 1452.9442219468801, 1466.90480310244, 1470.74344789632, 2948.7315653052397, 3035.3173832051198, 3081.4978594821196, 3128.7358514984, 3230.1062887922394]

>  <E0_kJmol>  (4) 
-207680

>  <H298_kJmol>  (4) 
-207667

$$$$

     RDKit          3D

  6  5  0  0  0  0  0  0  0  0999 V2000
   -0.4436    0.0188   -0.1393 C   0  0  0  0  0  0  0  0  0  1  0  0
    1.0624   -0.0017   -0.1425 C   0  0  0  0  0  3  0  0  0  2  0  0
    1.7971   -0.0947    0.7691 O   0  0  0  0  0  0  0  0  0  3  0  0
   -0.8374   -0.0681    0.8758 H   0  0  0  0  0  0  0  0  0  4  0  0
   -0.7772    0.9478   -0.6020 H   0  0  0  0  0  0  0  0  0  5  0  0
   -0.8013   -0.8022   -0.7611 H   0  0  0  0  0  0  0  0  0  6  0  0
  1  5  1  0
  1  4  1  0
  1  6  1  0
  1  2  1  0
  2  3  1  0
M  RAD  1   2   2
M  END
>  <rmg_smiles>  (5) 
C[C]O

>  <rmg_adjacency_list>  (5) 
multiplicity 2
1 O u0 p2 c0 {3,S}
2 C u0 p0 c0 {3,S} {4,S} {5,S} {6,S}
3 C u1 p1 c0 {1,S} {2,S}
4 H u0 p0 c0 {2,S}
5 H u0 p0 c0 {2,S}
6 H u0 p0 c0 {2,S}


>  <multiplicity>  (5) 
2

>  <reaction>  (5) 
rxn_326

>  <type>  (5) 
r2

>  <role_mapnums>  (5) 
{}

>  <role_mapidx>  (5) 
{}

>  <ordered_mapped_smiles>  (5) 
[C:1]([CH:2][OH:3])([H:4])([H:5])[H:6]

>  <level_of_theory>  (5) 
wb97xd/def2tzvp

>  <lot_method>  (5) 
wb97xd

>  <lot_basis>  (5) 
def2tzvp

>  <spin_multiplicity>  (5) 
2.0

>  <optical_isomers>  (5) 
1.0

>  <modes>  (5) 
IdealGasTranslation(mass=(43.0184, 'amu')),         NonlinearRotor(             inertia = ([5.94609, 50.3608, 53.1944

>  <frequency_value>  (5) 
unknown

>  <frequency_units>  (5) 
unknown

>  <frequency_list>  (5) 
unknown

>  <arkane_path>  (5) 
/home/calvin/Dropbox/PersonalFolders/Calvin/HAb_Converged/rxn_326/output/Species/rxn_326_C[C]=O/arkane/output.py

>  <path_exists>  (5) 
True

>  <E0_value>  (5) 
-402090.6190241112

>  <E0_units>  (5) 
kJ/mol

>  <thermo_class>  (5) 
NASA

>  <Cp0_value>  (5) 
33.257888

>  <Cp0_units>  (5) 
J/(mol*K)

>  <CpInf_value>  (5) 
133.031552

>  <CpInf_units>  (5) 
J/(mol*K)

>  <Tmin_value>  (5) 
10.0

>  <Tmin_units>  (5) 
K

>  <Tmax_value>  (5) 
3000.0

>  <Tmax_units>  (5) 
K

>  <polynomials>  (5) 
[{"name": "polynomial1", "class": "NASAPolynomial", "Tmin_value": 10.0, "Tmin_units": "K", "Tmax_value": 427.93177828974547, "Tmax_units": "K", "coeffs": [3.893020821091066, 0.012009389445979348, -3.466806991037676e-05, 1.0911559497846547e-07, -1.0188217069756871e-10, -48360330.77713174, 7.410440685767023]}, {"name": "polynomial2", "class": "NASAPolynomial", "Tmin_value": 427.93177828974547, "Tmin_units": "K", "Tmax_value": 3000.0, "Tmax_units": "K", "coeffs": [2.019733184880541, 0.01717921447375376, -9.533799268598344e-06, 2.572170839696643e-09, -2.7096683892647357e-13, -48360057.45777526, 16.178144591374252]}]

>  <H298_value>  (5) 
-96098.87402661383

>  <H298_units>  (5) 
kcal/mol

>  <S298_value>  (5) 
64.36656512790056

>  <S298_units>  (5) 
cal/(mol*K)

>  <Cp_T_value_list>  (5) 
[12.910059611851416, 14.953927486507668, 16.951818420915455, 18.71067343178971, 21.595840828526065, 23.779613263740586, 27.119036510646673, 28.784412632826527, 29.614989585058467]

>  <Cp_T_units>  (5) 
cal/(mol*K)

>  <T_list>  (5) 
[300.0, 400.0, 500.0, 600.0, 800.0, 1000.0, 1500.0, 2000.0, 2400.0]

>  <T_units>  (5) 
K

>  <yaml_path>  (5) 
/home/calvin/Dropbox/PersonalFolders/Calvin/HAb_Converged/rxn_326/output/Species/rxn_326_C[C]=O/rxn_326_CC=O.yml

>  <frequencies_cm1>  (5) 
[101.3223683966, 469.68806191735996, 856.5328129342399, 946.5452565088, 1046.10967666348, 1345.98405860256, 1441.5656272716399, 1444.3330223556002, 1945.5199459358, 3011.2211317172396, 3109.3297509840795, 3115.9701257885195]

>  <ZPE_kJmol>  (5) 
112.65309797971996

>  <E_elec_kJmol>  (5) 
-402203.2721220909

>  <E0_minus_Eelec_plus_ZPE_kJmol>  (5) 
0.0

>  <rxn>  (5) 
rxn_326

>  <species_type>  (5) 
r0

>  <species_folder>  (5) 
rxn_326_C[C]=O

>  <frequencies_cm1_list>  (5) 
[101.3223683966, 469.68806191735996, 856.5328129342399, 946.5452565088, 1046.10967666348, 1345.98405860256, 1441.5656272716399, 1444.3330223556002, 1945.5199459358, 3011.2211317172396, 3109.3297509840795, 3115.9701257885195]

>  <E0_kJmol>  (5) 
-402091

>  <H298_kJmol>  (5) 
-402078

$$$$
