
     RDKit          3D

  9  8  0  0  0  0  0  0  0  0999 V2000
   -0.3603   -0.5264   -1.0963 C   0  0  0  0  0  0  0  0  0  1  0  0
    0.1468   -0.4086    0.1292 C   0  0  0  0  0  0  0  0  0  2  0  0
    0.2278    0.8446    0.8901 C   0  0  0  0  0  0  0  0  0  3  0  0
   -0.4191   -1.4856   -1.5944 H   0  0  0  0  0  0  0  0  0  4  0  0
   -0.7253    0.3374   -1.6414 H   0  0  0  0  0  0  0  0  0  5  0  0
    0.4974   -1.3039    0.6356 H   0  0  0  0  0  0  0  0  0  6  0  0
   -0.5940    0.8561    1.6046 H   0  0  0  0  0  0  0  0  0  7  0  0
    0.0754    1.7407    0.2902 H   0  0  0  0  0  0  0  0  0  8  0  0
    1.1102    0.9303    1.5225 H   0  0  0  0  0  0  0  0  0  9  0  0
  1  5  1  0
  1  4  1  0
  1  2  1  0
  2  6  1  0
  2  3  1  0
  3  8  1  0
  3  7  1  0
  3  9  1  0
M  END
>  <rmg_smiles>  (1) 
[CH2][CH]C

>  <rmg_adjacency_list>  (1) 
1 C u0 p0 c0 {2,S} {4,S} {5,S} {6,S}
2 C u0 p0 c0 {1,S} {3,S} {7,S}
3 C u0 p0 c0 {2,S} {8,S} {9,S}
4 H u0 p0 c0 {1,S}
5 H u0 p0 c0 {1,S}
6 H u0 p0 c0 {1,S}
7 H u0 p0 c0 {2,S}
8 H u0 p0 c0 {3,S}
9 H u0 p0 c0 {3,S}


>  <multiplicity>  (1) 
1

>  <reaction>  (1) 
rxn_1012

>  <type>  (1) 
r1h

>  <role_mapnums>  (1) 
{"r1h_a": 3, "r1h_h": 7}

>  <role_mapidx>  (1) 
{"r1h_a": 2, "r1h_h": 6}

>  <ordered_mapped_smiles>  (1) 
[CH:1]([CH:2]([C:3]([H:7])([H:8])[H:9])[H:6])([H:4])[H:5]

>  <mol_properties>  (1) 
{"2": {"label": "donator", "atom_type": "Cs"}, "6": {"label": "d_hydrogen", "atom_type": "H0"}}

>  <level_of_theory>  (1) 
wb97xd/def2tzvp

>  <lot_method>  (1) 
wb97xd

>  <lot_basis>  (1) 
def2tzvp

>  <spin_multiplicity>  (1) 
1.0

>  <optical_isomers>  (1) 
1.0

>  <modes>  (1) 
IdealGasTranslation(mass=(42.047, 'amu')),         NonlinearRotor(             inertia = ([10.7194, 53.9495, 61.5633

>  <frequency_value>  (1) 
unknown

>  <frequency_units>  (1) 
unknown

>  <frequency_list>  (1) 
unknown

>  <arkane_path>  (1) 
/home/calvin/Dropbox/PersonalFolders/Calvin/HAb_Converged/rxn_1012/output/Species/rxn_1012_C=CC/arkane/output.py

>  <path_exists>  (1) 
True

>  <E0_value>  (1) 
-309367.8832800635

>  <E0_units>  (1) 
kJ/mol

>  <thermo_class>  (1) 
NASA

>  <Cp0_value>  (1) 
33.257888

>  <Cp0_units>  (1) 
J/(mol*K)

>  <CpInf_value>  (1) 
207.8618

>  <CpInf_units>  (1) 
J/(mol*K)

>  <Tmin_value>  (1) 
10.0

>  <Tmin_units>  (1) 
K

>  <Tmax_value>  (1) 
3000.0

>  <Tmax_units>  (1) 
K

>  <polynomials>  (1) 
[{"name": "polynomial1", "class": "NASAPolynomial", "Tmin_value": 10.0, "Tmin_units": "K", "Tmax_value": 531.9066404514887, "Tmax_units": "K", "coeffs": [4.0204367106395305, -0.0017312814973888466, 7.469369070858841e-05, -1.103989586823944e-07, 5.357411953540602e-11, -37208361.619619094, 6.984063163619424]}, {"name": "polynomial2", "class": "NASAPolynomial", "Tmin_value": 531.9066404514887, "Tmin_units": "K", "Tmax_value": 3000.0, "Tmax_units": "K", "coeffs": [-0.30746978474152303, 0.03081497539241948, -1.7087881859194207e-05, 4.635359552359225e-09, -4.926745989402899e-13, -37207901.209693715, 25.131571818199003]}]

>  <H298_value>  (1) 
-73937.54315081466

>  <H298_units>  (1) 
kcal/mol

>  <S298_value>  (1) 
63.235428095961645

>  <S298_units>  (1) 
cal/(mol*K)

>  <Cp_T_value_list>  (1) 
[15.255114438428619, 19.0471333221202, 22.6079143488244, 25.768633340780376, 30.96022164704354, 34.89993402421754, 40.97109580318192, 44.05842766532305, 45.61775865339882]

>  <Cp_T_units>  (1) 
cal/(mol*K)

>  <T_list>  (1) 
[300.0, 400.0, 500.0, 600.0, 800.0, 1000.0, 1500.0, 2000.0, 2400.0]

>  <T_units>  (1) 
K

>  <yaml_path>  (1) 
/home/calvin/Dropbox/PersonalFolders/Calvin/HAb_Converged/rxn_1012/output/Species/rxn_1012_C=CC/rxn_1012_C=CC.yml

>  <frequencies_cm1>  (1) 
[200.92112347787997, 429.72220735495995, 590.1693193567598, 925.5460154002399, 944.49202789812, 949.7315376972799, 1024.05291981564, 1068.7501272635197, 1186.76613697304, 1322.2792252779197, 1396.37399688072, 1440.26090006084, 1466.0326959668, 1481.02332492036, 1720.5094379553598, 3007.2932161142003, 3065.80679802592, 3091.5648599612396, 3111.3280437122, 3123.2628641983597, 3201.2855514042]

>  <ZPE_kJmol>  (1) 
207.8343042708976

>  <E_elec_kJmol>  (1) 
-309575.71758433443

>  <E0_minus_Eelec_plus_ZPE_kJmol>  (1) 
0.0

>  <rxn>  (1) 
rxn_1012

>  <species_type>  (1) 
r1

>  <species_folder>  (1) 
rxn_1012_C=CC

>  <frequencies_cm1_list>  (1) 
[200.92112347787997, 429.72220735495995, 590.1693193567598, 925.5460154002399, 944.49202789812, 949.7315376972799, 1024.05291981564, 1068.7501272635197, 1186.76613697304, 1322.2792252779197, 1396.37399688072, 1440.26090006084, 1466.0326959668, 1481.02332492036, 1720.5094379553598, 3007.2932161142003, 3065.80679802592, 3091.5648599612396, 3111.3280437122, 3123.2628641983597, 3201.2855514042]

>  <E0_kJmol>  (1) 
-309368

>  <H298_kJmol>  (1) 
-309355

$$$$

     RDKit          3D

  6  5  0  0  0  0  0  0  0  0999 V2000
    0.4064    0.4546    0.2254 C   0  0  0  0  0  0  0  0  0  1  0  0
   -0.4368   -0.4529   -0.1991 C   0  0  0  0  0  0  0  0  0  2  0  0
    0.3460    1.1255    1.0736 H   0  0  0  0  0  0  0  0  0  3  0  0
   -1.3803   -0.6493    0.3065 H   0  0  0  0  0  0  0  0  0  4  0  0
   -0.2218   -1.0478   -1.0832 H   0  0  0  0  0  0  0  0  0  5  0  0
    1.2959    0.5256   -0.3885 H   0  0  0  0  0  0  0  0  0  6  0  0
  1  3  1  0
  1  6  1  0
  1  2  1  0
  2  4  1  0
  2  5  1  0
M  END
>  <rmg_smiles>  (2) 
[CH2][CH2]

>  <rmg_adjacency_list>  (2) 
1 C u0 p0 c0 {2,S} {3,S} {6,S}
2 C u0 p0 c0 {1,S} {4,S} {5,S}
3 H u0 p0 c0 {1,S}
4 H u0 p0 c0 {2,S}
5 H u0 p0 c0 {2,S}
6 H u0 p0 c0 {1,S}


>  <multiplicity>  (2) 
1

>  <reaction>  (2) 
rxn_1012

>  <type>  (2) 
r2h

>  <role_mapnums>  (2) 
{"r2h_a": 1, "r2h_h": 6}

>  <role_mapidx>  (2) 
{"r2h_a": 0, "r2h_h": 5}

>  <ordered_mapped_smiles>  (2) 
[CH:1]([CH:2]([H:4])[H:5])([H:3])[H:6]

>  <mol_properties>  (2) 
{"0": {"label": "acceptor", "atom_type": "Cs"}, "5": {"label": "a_hydrogen", "atom_type": "H0"}}

>  <level_of_theory>  (2) 
wb97xd/def2tzvp

>  <lot_method>  (2) 
wb97xd

>  <lot_basis>  (2) 
def2tzvp

>  <spin_multiplicity>  (2) 
1.0

>  <optical_isomers>  (2) 
1.0

>  <modes>  (2) 
IdealGasTranslation(mass=(28.0313, 'amu')),         NonlinearRotor(             inertia = ([3.4313, 16.5733, 20.0046

>  <frequency_value>  (2) 
unknown

>  <frequency_units>  (2) 
unknown

>  <frequency_list>  (2) 
unknown

>  <arkane_path>  (2) 
/home/calvin/Dropbox/PersonalFolders/Calvin/HAb_Converged/rxn_1012/output/Species/rxn_1012_C=C/arkane/output.py

>  <path_exists>  (2) 
True

>  <E0_value>  (2) 
-206204.08464717612

>  <E0_units>  (2) 
kJ/mol

>  <thermo_class>  (2) 
NASA

>  <Cp0_value>  (2) 
33.257888

>  <Cp0_units>  (2) 
J/(mol*K)

>  <CpInf_value>  (2) 
133.031552

>  <CpInf_units>  (2) 
J/(mol*K)

>  <Tmin_value>  (2) 
10.0

>  <Tmin_units>  (2) 
K

>  <Tmax_value>  (2) 
3000.0

>  <Tmax_units>  (2) 
K

>  <polynomials>  (2) 
[{"name": "polynomial1", "class": "NASAPolynomial", "Tmin_value": 10.0, "Tmin_units": "K", "Tmax_value": 769.5217501758626, "Tmax_units": "K", "coeffs": [4.102594925382579, -0.006879522193259702, 5.062107249177076e-05, -5.972223289849955e-08, 2.3228029141840905e-11, -24800625.606387716, 3.2220821404236424]}, {"name": "polynomial2", "class": "NASAPolynomial", "Tmin_value": 769.5217501758626, "Tmin_units": "K", "Tmax_value": 3000.0, "Tmax_units": "K", "coeffs": [0.4501873055486705, 0.01806199469136872, -9.606651718966085e-06, 2.51372192351987e-09, -2.587294024527882e-13, -24800239.83662215, 18.740105419928828]}]

>  <H298_value>  (2) 
-49281.46687172266

>  <H298_units>  (2) 
kcal/mol

>  <S298_value>  (2) 
52.28638692235232

>  <S298_units>  (2) 
cal/(mol*K)

>  <Cp_T_value_list>  (2) 
[10.27441708697483, 12.365536101969841, 14.515698252557122, 16.511337099494305, 19.738079638388314, 22.178263460277243, 26.036790662755205, 28.054735064109895, 29.07349068569704]

>  <Cp_T_units>  (2) 
cal/(mol*K)

>  <T_list>  (2) 
[300.0, 400.0, 500.0, 600.0, 800.0, 1000.0, 1500.0, 2000.0, 2400.0]

>  <T_units>  (2) 
K

>  <yaml_path>  (2) 
/home/calvin/Dropbox/PersonalFolders/Calvin/HAb_Converged/rxn_1012/output/Species/rxn_1012_C=C/rxn_1012_C=C.yml

>  <frequencies_cm1>  (2) 
[832.94471836004, 977.0690062561998, 990.3016869678398, 1058.52518612204, 1234.34061127, 1375.2030811391598, 1460.7588512410398, 1695.25953293372, 3111.1769700351597, 3128.9967969405598, 3189.2477261382396, 3215.2736005010397]

>  <ZPE_kJmol>  (2) 
133.19882255210345

>  <E_elec_kJmol>  (2) 
-206337.28346972825

>  <E0_minus_Eelec_plus_ZPE_kJmol>  (2) 
0.0

>  <rxn>  (2) 
rxn_1012

>  <species_type>  (2) 
p0

>  <species_folder>  (2) 
rxn_1012_C=C

>  <frequencies_cm1_list>  (2) 
[832.94471836004, 977.0690062561998, 990.3016869678398, 1058.52518612204, 1234.34061127, 1375.2030811391598, 1460.7588512410398, 1695.25953293372, 3111.1769700351597, 3128.9967969405598, 3189.2477261382396, 3215.2736005010397]

>  <E0_kJmol>  (2) 
-206204

>  <H298_kJmol>  (2) 
-206194

$$$$

     RDKit          3D

 14 12  0  0  0  0  0  0  0  0999 V2000
   -0.9840    0.6520    1.6406 C   0  0  0  0  0  3  0  0  0  1  0  0
   -1.8272   -0.2555    1.2161 C   0  0  0  0  0  0  0  0  0  2  0  0
   -1.0444    1.3228    2.4887 H   0  0  0  0  0  0  0  0  0  3  0  0
   -2.7707   -0.4519    1.7216 H   0  0  0  0  0  0  0  0  0  4  0  0
   -1.6122   -0.8505    0.3320 H   0  0  0  0  0  0  0  0  0  5  0  0
    0.5752   -0.6353   -1.9956 C   0  0  0  0  0  0  0  0  0  6  0  0
    1.0823   -0.5176   -0.7701 C   0  0  0  0  0  0  0  0  0  7  0  0
    1.1634    0.7356   -0.0093 C   0  0  0  0  0  0  0  0  0  8  0  0
    0.5164   -1.5946   -2.4937 H   0  0  0  0  0  0  0  0  0  9  0  0
    0.2102    0.2284   -2.5407 H   0  0  0  0  0  0  0  0  0 10  0  0
    1.4329   -1.4128   -0.2637 H   0  0  0  0  0  0  0  0  0 11  0  0
    0.2272    0.7487    0.8046 H   0  0  0  0  0  0  0  0  0 12  0  0
    1.0110    1.6318   -0.6091 H   0  0  0  0  0  0  0  0  0 13  0  0
    2.0458    0.8213    0.6232 H   0  0  0  0  0  0  0  0  0 14  0  0
  1  3  1  0
  1  2  1  0
  2  5  1  0
  2  4  1  0
  6  9  1  0
  6  7  1  0
  6 10  1  0
  7  8  1  0
  7 11  1  0
  8 14  1  0
  8 13  1  0
  8 12  1  0
M  RAD  1   1   2
M  END
>  <rmg_smiles>  (3) 
[CH2][CH]C.[CH][CH2]

>  <rmg_adjacency_list>  (3) 
multiplicity 2
1  C u0 p0 c0 {2,S} {6,S} {7,S} {8,S}
2  C u0 p0 c0 {1,S} {3,S} {9,S}
3  C u0 p0 c0 {2,S} {10,S} {11,S}
4  C u0 p0 c0 {5,S} {12,S} {13,S}
5  C u1 p1 c0 {4,S} {14,S}
6  H u0 p0 c0 {1,S}
7  H u0 p0 c0 {1,S}
8  H u0 p0 c0 {1,S}
9  H u0 p0 c0 {2,S}
10 H u0 p0 c0 {3,S}
11 H u0 p0 c0 {3,S}
12 H u0 p0 c0 {4,S}
13 H u0 p0 c0 {4,S}
14 H u0 p0 c0 {5,S}


>  <multiplicity>  (3) 
2

>  <reaction>  (3) 
rxn_1012

>  <type>  (3) 
ts

>  <role_mapnums>  (3) 
{"*2": 12, "*1": 8, "*3": 1, "*0": 7, "*4": 2}

>  <role_mapidx>  (3) 
{"*2": 11, "*1": 7, "*3": 0, "*0": 6, "*4": 1}

>  <ordered_mapped_smiles>  (3) 
[CH:1]([CH:2]([H:4])[H:5])[H:3].[CH:6]([CH:7]([C:8]([H:12])([H:13])[H:14])[H:11])([H:9])[H:10]

>  <mol_properties>  (3) 
{"0": {"label": "*3", "atom_type": "C2s"}, "1": {"label": "*4", "atom_type": "Cs"}, "6": {"label": "*0", "atom_type": "Cs"}, "7": {"label": "*1", "atom_type": "Cs"}, "11": {"label": "*2", "atom_type": "H0"}}

>  <level_of_theory>  (3) 
wb97xd/def2tzvp

>  <lot_method>  (3) 
wb97xd

>  <lot_basis>  (3) 
def2tzvp

>  <spin_multiplicity>  (3) 
2.0

>  <optical_isomers>  (3) 
2.0

>  <modes>  (3) 
IdealGasTranslation(mass=(69.0704, 'amu')),         NonlinearRotor(             inertia = ([63.897, 210.92, 255.816

>  <frequency_value>  (3) 
-1400.35

>  <frequency_units>  (3) 
cm^-1

>  <frequency_list>  (3) 
unknown

>  <arkane_path>  (3) 
/home/calvin/Dropbox/PersonalFolders/Calvin/HAb_Converged/rxn_1012/output/rxns/TS0/arkane/output.py

>  <path_exists>  (3) 
True

>  <E0_value>  (3) 
-513783.0

>  <E0_units>  (3) 
kJ/mol

>  <thermo_class>  (3) 
unknown

>  <Cp0_value>  (3) 
unknown

>  <Cp0_units>  (3) 
unknown

>  <CpInf_value>  (3) 
unknown

>  <CpInf_units>  (3) 
unknown

>  <Tmin_value>  (3) 
unknown

>  <Tmin_units>  (3) 
unknown

>  <Tmax_value>  (3) 
unknown

>  <Tmax_units>  (3) 
unknown

>  <polynomials>  (3) 
unknown

>  <H298_value>  (3) 
unknown

>  <H298_units>  (3) 
unknown

>  <S298_value>  (3) 
unknown

>  <S298_units>  (3) 
unknown

>  <Cp_T_value_list>  (3) 
unknown

>  <Cp_T_units>  (3) 
unknown

>  <T_list>  (3) 
unknown

>  <T_units>  (3) 
unknown

>  <yaml_path>  (3) 
unknown

>  <frequencies_cm1>  (3) 
unknown

>  <ZPE_kJmol>  (3) 
unknown

>  <E_elec_kJmol>  (3) 
unknown

>  <E0_minus_Eelec_plus_ZPE_kJmol>  (3) 
unknown

>  <rxn>  (3) 
unknown

>  <species_type>  (3) 
unknown

>  <species_folder>  (3) 
unknown

>  <frequencies_cm1_list>  (3) 
[]

>  <ts_imag_freq_cm1>  (3) 
-1417.3539

>  <ts_freq_out_path>  (3) 
/home/calvin/Dropbox/PersonalFolders/Calvin/HAb_Converged/rxn_1012/output/rxns/TS0/geometry/freq.out

>  <E0_kJmol>  (3) 
-513783

>  <H298_kJmol>  (3) 
unknown

$$$$

     RDKit          3D

  8  7  0  0  0  0  0  0  0  0999 V2000
   -1.2262   -0.1032    0.0429 C   0  0  0  0  0  0  0  0  0  1  0  0
    0.0344    0.4295    0.2005 C   0  0  0  0  0  0  0  0  0  2  0  0
    1.2024   -0.1933   -0.1813 C   0  0  0  0  0  3  0  0  0  3  0  0
   -2.1090    0.4329    0.3624 H   0  0  0  0  0  0  0  0  0  4  0  0
   -1.3659   -1.0784   -0.4078 H   0  0  0  0  0  0  0  0  0  5  0  0
    0.1132    1.4113    0.6589 H   0  0  0  0  0  0  0  0  0  6  0  0
    2.1658    0.2743   -0.0323 H   0  0  0  0  0  0  0  0  0  7  0  0
    1.1853   -1.1731   -0.6434 H   0  0  0  0  0  0  0  0  0  8  0  0
  1  5  1  0
  1  4  1  0
  1  2  1  0
  2  6  1  0
  2  3  1  0
  3  8  1  0
  3  7  1  0
M  RAD  1   3   2
M  END
>  <rmg_smiles>  (4) 
[CH2][CH][CH2]

>  <rmg_adjacency_list>  (4) 
multiplicity 2
1 C u0 p0 c0 {2,S} {3,S} {4,S}
2 C u1 p0 c0 {1,S} {7,S} {8,S}
3 C u0 p0 c0 {1,S} {5,S} {6,S}
4 H u0 p0 c0 {1,S}
5 H u0 p0 c0 {3,S}
6 H u0 p0 c0 {3,S}
7 H u0 p0 c0 {2,S}
8 H u0 p0 c0 {2,S}


>  <multiplicity>  (4) 
2

>  <reaction>  (4) 
rxn_1012

>  <type>  (4) 
r1

>  <role_mapnums>  (4) 
{}

>  <role_mapidx>  (4) 
{}

>  <ordered_mapped_smiles>  (4) 
[CH:1]([CH:2]([C:3]([H:7])[H:8])[H:6])([H:4])[H:5]

>  <level_of_theory>  (4) 
wb97xd/def2tzvp

>  <lot_method>  (4) 
wb97xd

>  <lot_basis>  (4) 
def2tzvp

>  <spin_multiplicity>  (4) 
2.0

>  <optical_isomers>  (4) 
1.0

>  <modes>  (4) 
IdealGasTranslation(mass=(41.0391, 'amu')),         NonlinearRotor(             inertia = ([9.18678, 48.3525, 57.5393

>  <frequency_value>  (4) 
unknown

>  <frequency_units>  (4) 
unknown

>  <frequency_list>  (4) 
unknown

>  <arkane_path>  (4) 
/home/calvin/Dropbox/PersonalFolders/Calvin/HAb_Converged/rxn_1012/output/Species/rxn_1012_[CH2]C=C/arkane/output.py

>  <path_exists>  (4) 
True

>  <E0_value>  (4) 
-307695.8239419476

>  <E0_units>  (4) 
kJ/mol

>  <thermo_class>  (4) 
NASA

>  <Cp0_value>  (4) 
33.257888

>  <Cp0_units>  (4) 
J/(mol*K)

>  <CpInf_value>  (4) 
182.918384

>  <CpInf_units>  (4) 
J/(mol*K)

>  <Tmin_value>  (4) 
10.0

>  <Tmin_units>  (4) 
K

>  <Tmax_value>  (4) 
3000.0

>  <Tmax_units>  (4) 
K

>  <polynomials>  (4) 
[{"name": "polynomial1", "class": "NASAPolynomial", "Tmin_value": 10.0, "Tmin_units": "K", "Tmax_value": 532.7267436952769, "Tmax_units": "K", "coeffs": [4.120476242700736, -0.01110500746607337, 0.00013118962632593044, -2.295122998736072e-07, 1.327617546042694e-10, -37007258.9235638, 6.732627685136077]}, {"name": "polynomial2", "class": "NASAPolynomial", "Tmin_value": 532.7267436952769, "Tmin_units": "K", "Tmax_value": 3000.0, "Tmax_units": "K", "coeffs": [0.911699466954835, 0.027118425571894478, -1.6222639840263127e-05, 4.752540164453407e-09, -5.404199600895895e-13, -37007117.54936121, 18.310519838179516]}]

>  <H298_value>  (4) 
-73538.08078140329

>  <H298_units>  (4) 
kcal/mol

>  <S298_value>  (4) 
61.52456331648896

>  <S298_units>  (4) 
cal/(mol*K)

>  <Cp_T_value_list>  (4) 
[14.853530963099974, 18.637467651362382, 21.80750730434748, 24.44088072021761, 28.68710434193412, 31.834263999492475, 36.54938793194129, 39.012029638884556, 40.38558701326713]

>  <Cp_T_units>  (4) 
cal/(mol*K)

>  <T_list>  (4) 
[300.0, 400.0, 500.0, 600.0, 800.0, 1000.0, 1500.0, 2000.0, 2400.0]

>  <T_units>  (4) 
K

>  <yaml_path>  (4) 
/home/calvin/Dropbox/PersonalFolders/Calvin/HAb_Converged/rxn_1012/output/Species/rxn_1012_[CH2]C=C/rxn_1012_CH2C=C.yml

>  <frequencies_cm1>  (4) 
[432.19432207015996, 530.70122648556, 552.78545127468, 794.8604177753199, 818.87426543936, 934.1091460942799, 1008.91808417036, 1035.1568350780801, 1186.33351689788, 1269.2386306662397, 1410.5886564931197, 1500.8483115392, 1510.5101598844399, 3121.9787379435197, 3123.6542823616, 3129.68349547256, 3223.1843675896794, 3225.69081723148]

>  <ZPE_kJmol>  (4) 
172.31799451557927

>  <E_elec_kJmol>  (4) 
-307868.1419364632

>  <E0_minus_Eelec_plus_ZPE_kJmol>  (4) 
0.0

>  <rxn>  (4) 
rxn_1012

>  <species_type>  (4) 
p1

>  <species_folder>  (4) 
rxn_1012_[CH2]C=C

>  <frequencies_cm1_list>  (4) 
[432.19432207015996, 530.70122648556, 552.78545127468, 794.8604177753199, 818.87426543936, 934.1091460942799, 1008.91808417036, 1035.1568350780801, 1186.33351689788, 1269.2386306662397, 1410.5886564931197, 1500.8483115392, 1510.5101598844399, 3121.9787379435197, 3123.6542823616, 3129.68349547256, 3223.1843675896794, 3225.69081723148]

>  <E0_kJmol>  (4) 
-307696

>  <H298_kJmol>  (4) 
-307683

$$$$

     RDKit          3D

  5  4  0  0  0  0  0  0  0  0999 V2000
    0.0397    0.7134    0.0000 C   0  0  0  0  0  3  0  0  0  1  0  0
    0.0458   -0.5870    0.0000 C   0  0  0  0  0  0  0  0  0  2  0  0
   -0.6871    1.5118    0.0000 H   0  0  0  0  0  0  0  0  0  3  0  0
   -0.8806   -1.1637    0.0000 H   0  0  0  0  0  0  0  0  0  4  0  0
    0.9690   -1.1600    0.0000 H   0  0  0  0  0  0  0  0  0  5  0  0
  1  3  1  0
  1  2  1  0
  2  5  1  0
  2  4  1  0
M  RAD  1   1   2
M  END
>  <rmg_smiles>  (5) 
[CH][CH2]

>  <rmg_adjacency_list>  (5) 
multiplicity 2
1 C u0 p0 c0 {2,S} {3,S} {4,S}
2 C u1 p1 c0 {1,S} {5,S}
3 H u0 p0 c0 {1,S}
4 H u0 p0 c0 {1,S}
5 H u0 p0 c0 {2,S}


>  <multiplicity>  (5) 
2

>  <reaction>  (5) 
rxn_1012

>  <type>  (5) 
r2

>  <role_mapnums>  (5) 
{}

>  <role_mapidx>  (5) 
{}

>  <ordered_mapped_smiles>  (5) 
[CH:1]([CH:2]([H:4])[H:5])[H:3]

>  <level_of_theory>  (5) 
wb97xd/def2tzvp

>  <lot_method>  (5) 
wb97xd

>  <lot_basis>  (5) 
def2tzvp

>  <spin_multiplicity>  (5) 
2.0

>  <optical_isomers>  (5) 
1.0

>  <modes>  (5) 
IdealGasTranslation(mass=(27.0235, 'amu')),         NonlinearRotor(             inertia = ([2.14183, 15.3481, 17.4899

>  <frequency_value>  (5) 
unknown

>  <frequency_units>  (5) 
unknown

>  <frequency_list>  (5) 
unknown

>  <arkane_path>  (5) 
/home/calvin/Dropbox/PersonalFolders/Calvin/HAb_Converged/rxn_1012/output/Species/rxn_1012_[CH]=C/arkane/output.py

>  <path_exists>  (5) 
True

>  <E0_value>  (5) 
-204434.59610714423

>  <E0_units>  (5) 
kJ/mol

>  <thermo_class>  (5) 
NASA

>  <Cp0_value>  (5) 
33.257888

>  <Cp0_units>  (5) 
J/(mol*K)

>  <CpInf_value>  (5) 
108.088136

>  <CpInf_units>  (5) 
J/(mol*K)

>  <Tmin_value>  (5) 
10.0

>  <Tmin_units>  (5) 
K

>  <Tmax_value>  (5) 
3000.0

>  <Tmax_units>  (5) 
K

>  <polynomials>  (5) 
[{"name": "polynomial1", "class": "NASAPolynomial", "Tmin_value": 10.0, "Tmin_units": "K", "Tmax_value": 605.1562073532106, "Tmax_units": "K", "coeffs": [4.0732302477000095, -0.005855893423713469, 5.173301484019039e-05, -7.605753070838568e-08, 3.74067872861101e-11, -24587803.17884632, 4.922911546686311]}, {"name": "polynomial2", "class": "NASAPolynomial", "Tmin_value": 605.1562073532106, "Tmin_units": "K", "Tmax_value": 3000.0, "Tmax_units": "K", "coeffs": [1.907334803595395, 0.013219860447203871, -7.347353045060493e-06, 2.024442812279225e-09, -2.192078156816895e-13, -24587628.1872574, 13.564186384006128]}]

>  <H298_value>  (5) 
-48858.50309296871

>  <H298_units>  (5) 
kcal/mol

>  <S298_value>  (5) 
55.807333309528325

>  <S298_units>  (5) 
cal/(mol*K)

>  <Cp_T_value_list>  (5) 
[10.376944352757018, 12.118158212925861, 13.730146484867369, 15.108875169207579, 17.343631711777416, 19.047527728648078, 21.716860438361014, 23.14273061905272, 23.900837148526193]

>  <Cp_T_units>  (5) 
cal/(mol*K)

>  <T_list>  (5) 
[300.0, 400.0, 500.0, 600.0, 800.0, 1000.0, 1500.0, 2000.0, 2400.0]

>  <T_units>  (5) 
K

>  <yaml_path>  (5) 
/home/calvin/Dropbox/PersonalFolders/Calvin/HAb_Converged/rxn_1012/output/Species/rxn_1012_[CH]=C/rxn_1012_CH=C.yml

>  <frequencies_cm1>  (5) 
[709.40765245324, 831.6056562226399, 928.3889473227199, 1044.4341322454, 1381.5275746188797, 1653.3915234376798, 3045.07536934484, 3137.58739557588, 3217.88305492264]

>  <ZPE_kJmol>  (5) 
95.3980343814778

>  <E_elec_kJmol>  (5) 
-204529.9941415257

>  <E0_minus_Eelec_plus_ZPE_kJmol>  (5) 
0.0

>  <rxn>  (5) 
rxn_1012

>  <species_type>  (5) 
r0

>  <species_folder>  (5) 
rxn_1012_[CH]=C

>  <frequencies_cm1_list>  (5) 
[709.40765245324, 831.6056562226399, 928.3889473227199, 1044.4341322454, 1381.5275746188797, 1653.3915234376798, 3045.07536934484, 3137.58739557588, 3217.88305492264]

>  <E0_kJmol>  (5) 
-204435

>  <H298_kJmol>  (5) 
-204424

$$$$
