
     RDKit          3D

 12 11  0  0  0  0  0  0  0  0999 V2000
   -0.7209   -0.3840   -1.5419 C   0  0  0  0  0  0  0  0  0  1  0  0
   -0.5403    0.0052   -0.0982 C   0  0  0  0  0  0  0  0  0  2  0  0
    1.0158   -0.4336    0.6483 S   0  0  0  0  0  0  0  0  0  3  0  0
   -0.9455    1.4159    0.2449 C   0  0  0  0  0  0  0  0  0  4  0  0
   -0.4941   -1.4394   -1.7025 H   0  0  0  0  0  0  0  0  0  5  0  0
   -0.0678    0.2032   -2.1953 H   0  0  0  0  0  0  0  0  0  6  0  0
   -1.7553   -0.2039   -1.8484 H   0  0  0  0  0  0  0  0  0  7  0  0
   -1.2848   -0.6106    0.4064 H   0  0  0  0  0  0  0  0  0  8  0  0
    1.0169   -1.7192    0.2683 H   0  0  0  0  0  0  0  0  0  9  0  0
   -1.9806    1.5842   -0.0592 H   0  0  0  0  0  0  0  0  0 10  0  0
   -0.3190    2.1499   -0.2736 H   0  0  0  0  0  0  0  0  0 11  0  0
   -0.8712    1.6044    1.3169 H   0  0  0  0  0  0  0  0  0 12  0  0
  1  5  1  0
  1  7  1  0
  1  6  1  0
  1  2  1  0
  2  8  1  0
  2  3  1  0
  2  4  1  0
  3  9  1  0
  4 11  1  0
  4 12  1  0
  4 10  1  0
M  END
>  <rmg_smiles>  (1) 
CC(S)C

>  <rmg_adjacency_list>  (1) 
1  S u0 p2 c0 {2,S} {12,S}
2  C u0 p0 c0 {1,S} {3,S} {4,S} {5,S}
3  C u0 p0 c0 {2,S} {6,S} {7,S} {8,S}
4  C u0 p0 c0 {2,S} {9,S} {10,S} {11,S}
5  H u0 p0 c0 {2,S}
6  H u0 p0 c0 {3,S}
7  H u0 p0 c0 {3,S}
8  H u0 p0 c0 {3,S}
9  H u0 p0 c0 {4,S}
10 H u0 p0 c0 {4,S}
11 H u0 p0 c0 {4,S}
12 H u0 p0 c0 {1,S}


>  <multiplicity>  (1) 
1

>  <reaction>  (1) 
rxn_1937

>  <type>  (1) 
r1h

>  <role_mapnums>  (1) 
{"r1h_a": 2, "r1h_h": 8}

>  <role_mapidx>  (1) 
{"r1h_a": 1, "r1h_h": 7}

>  <ordered_mapped_smiles>  (1) 
[C:1]([C:2]([S:3][H:9])([C:4]([H:10])([H:11])[H:12])[H:8])([H:5])([H:6])[H:7]

>  <mol_properties>  (1) 
{"1": {"label": "donator", "atom_type": "Cs"}, "7": {"label": "d_hydrogen", "atom_type": "H0"}}

>  <level_of_theory>  (1) 
wb97xd/def2tzvp

>  <lot_method>  (1) 
wb97xd

>  <lot_basis>  (1) 
def2tzvp

>  <spin_multiplicity>  (1) 
1.0

>  <optical_isomers>  (1) 
1.0

>  <modes>  (1) 
IdealGasTranslation(mass=(76.0347, 'amu')),         NonlinearRotor(             inertia = ([63.6139, 114.441, 159.621

>  <frequency_value>  (1) 
unknown

>  <frequency_units>  (1) 
unknown

>  <frequency_list>  (1) 
unknown

>  <arkane_path>  (1) 
/home/calvin/Dropbox/PersonalFolders/Calvin/HAb_Converged/rxn_1937/output/Species/rxn_1937_CC[S]C/arkane/output.py

>  <path_exists>  (1) 
True

>  <E0_value>  (1) 
-1358037.5866518293

>  <E0_units>  (1) 
kJ/mol

>  <thermo_class>  (1) 
NASA

>  <Cp0_value>  (1) 
33.257888

>  <Cp0_units>  (1) 
J/(mol*K)

>  <CpInf_value>  (1) 
282.692048

>  <CpInf_units>  (1) 
J/(mol*K)

>  <Tmin_value>  (1) 
10.0

>  <Tmin_units>  (1) 
K

>  <Tmax_value>  (1) 
3000.0

>  <Tmax_units>  (1) 
K

>  <polynomials>  (1) 
[{"name": "polynomial1", "class": "NASAPolynomial", "Tmin_value": 10.0, "Tmin_units": "K", "Tmax_value": 321.0427973613408, "Tmax_units": "K", "coeffs": [3.8756047097418973, 0.009389250032259752, 0.00011815725900514658, -2.839097589188045e-07, 2.248653567403297e-10, -163334191.98612887, 9.447969360133794]}, {"name": "polynomial2", "class": "NASAPolynomial", "Tmin_value": 321.0427973613408, "Tmin_units": "K", "Tmax_value": 3000.0, "Tmax_units": "K", "coeffs": [1.4806840671397867, 0.03922843927194572, -2.12592416875342e-05, 5.597074365621278e-09, -5.765908627450798e-13, -163334038.21131045, 18.281020566317956]}]

>  <H298_value>  (1) 
-324574.47563528904

>  <H298_units>  (1) 
kcal/mol

>  <S298_value>  (1) 
74.54205005976131

>  <S298_units>  (1) 
cal/(mol*K)

>  <Cp_T_value_list>  (1) 
[22.81785805349738, 28.04749840897883, 32.6770089554356, 36.76066239877869, 43.494090555582204, 48.62766871564607, 56.55824970959882, 60.5138896959208, 62.43755375914227]

>  <Cp_T_units>  (1) 
cal/(mol*K)

>  <T_list>  (1) 
[300.0, 400.0, 500.0, 600.0, 800.0, 1000.0, 1500.0, 2000.0, 2400.0]

>  <T_units>  (1) 
K

>  <yaml_path>  (1) 
/home/calvin/Dropbox/PersonalFolders/Calvin/HAb_Converged/rxn_1937/output/Species/rxn_1937_CC[S]C/rxn_1937_CCSC.yml

>  <frequencies_cm1>  (1) 
[200.16575509268, 239.05349295983999, 267.56521600848, 330.00671352323997, 342.12007562772, 410.47404750299995, 623.63900580644, 869.4770802624399, 901.3261581766, 934.4387613896399, 956.6740598558, 1108.1048201324402, 1133.3272572128, 1186.15497527956, 1298.3065795258, 1327.5874049302797, 1394.18342856364, 1410.9869416416798, 1469.0885044341999, 1472.7280066537999, 1483.70144919516, 1489.7375292914398, 2685.0049940906397, 3006.5378477289996, 3009.8752025945196, 3034.84356121804, 3072.74932018444, 3080.10386146216, 3104.8387425847995, 3107.4138620797994]

>  <ZPE_kJmol>  (1) 
268.8620674224514

>  <E_elec_kJmol>  (1) 
-1358306.4487192517

>  <E0_minus_Eelec_plus_ZPE_kJmol>  (1) 
0.0

>  <rxn>  (1) 
rxn_1937

>  <species_type>  (1) 
r1

>  <species_folder>  (1) 
rxn_1937_CC[S]C

>  <frequencies_cm1_list>  (1) 
[200.16575509268, 239.05349295983999, 267.56521600848, 330.00671352323997, 342.12007562772, 410.47404750299995, 623.63900580644, 869.4770802624399, 901.3261581766, 934.4387613896399, 956.6740598558, 1108.1048201324402, 1133.3272572128, 1186.15497527956, 1298.3065795258, 1327.5874049302797, 1394.18342856364, 1410.9869416416798, 1469.0885044341999, 1472.7280066537999, 1483.70144919516, 1489.7375292914398, 2685.0049940906397, 3006.5378477289996, 3009.8752025945196, 3034.84356121804, 3072.74932018444, 3080.10386146216, 3104.8387425847995, 3107.4138620797994]

>  <E0_kJmol>  (1) 
-1.35804e+06

>  <H298_kJmol>  (1) 
-1.35802e+06

$$$$

     RDKit          3D

 10  9  0  0  0  0  0  0  0  0999 V2000
    0.8701   -1.3003   -0.1792 S   0  0  0  0  0  0  0  0  0  1  0  0
    0.4181    0.3835    0.2151 C   0  0  0  0  0  0  0  0  0  2  0  0
   -0.9048    0.8625   -0.1903 C   0  0  0  0  0  0  0  0  0  3  0  0
   -1.6115    1.7784    0.4697 C   0  0  0  0  0  0  0  0  0  4  0  0
    0.5237   -1.2601   -1.4735 H   0  0  0  0  0  0  0  0  0  5  0  0
    0.6572    0.5612    1.2630 H   0  0  0  0  0  0  0  0  0  6  0  0
   -1.2941    0.4711   -1.1267 H   0  0  0  0  0  0  0  0  0  7  0  0
   -1.2648    2.1922    1.4100 H   0  0  0  0  0  0  0  0  0  8  0  0
   -2.5603    2.1360    0.0920 H   0  0  0  0  0  0  0  0  0  9  0  0
    1.1646    1.0115   -0.2698 H   0  0  0  0  0  0  0  0  0 10  0  0
  1  2  1  0
  1  5  1  0
  2 10  1  0
  2  6  1  0
  2  3  1  0
  3  4  1  0
  3  7  1  0
  4  8  1  0
  4  9  1  0
M  END
>  <rmg_smiles>  (2) 
[CH2][CH]CS

>  <rmg_adjacency_list>  (2) 
1  S u0 p2 c0 {2,S} {10,S}
2  C u0 p0 c0 {1,S} {3,S} {5,S} {6,S}
3  C u0 p0 c0 {2,S} {4,S} {7,S}
4  C u0 p0 c0 {3,S} {8,S} {9,S}
5  H u0 p0 c0 {2,S}
6  H u0 p0 c0 {2,S}
7  H u0 p0 c0 {3,S}
8  H u0 p0 c0 {4,S}
9  H u0 p0 c0 {4,S}
10 H u0 p0 c0 {1,S}


>  <multiplicity>  (2) 
1

>  <reaction>  (2) 
rxn_1937

>  <type>  (2) 
r2h

>  <role_mapnums>  (2) 
{"r2h_a": 2, "r2h_h": 10}

>  <role_mapidx>  (2) 
{"r2h_a": 1, "r2h_h": 9}

>  <ordered_mapped_smiles>  (2) 
[S:1]([C:2]([CH:3]([CH:4]([H:8])[H:9])[H:7])([H:6])[H:10])[H:5]

>  <mol_properties>  (2) 
{"1": {"label": "acceptor", "atom_type": "Cs"}, "9": {"label": "a_hydrogen", "atom_type": "H0"}}

>  <level_of_theory>  (2) 
wb97xd/def2tzvp

>  <lot_method>  (2) 
wb97xd

>  <lot_basis>  (2) 
def2tzvp

>  <spin_multiplicity>  (2) 
1.0

>  <optical_isomers>  (2) 
2.0

>  <modes>  (2) 
IdealGasTranslation(mass=(74.019, 'amu')),         NonlinearRotor(             inertia = ([24.9739, 180.25, 186.44

>  <frequency_value>  (2) 
unknown

>  <frequency_units>  (2) 
unknown

>  <frequency_list>  (2) 
unknown

>  <arkane_path>  (2) 
/home/calvin/Dropbox/PersonalFolders/Calvin/HAb_Converged/rxn_1937/output/Species/rxn_1937_SCC=C/arkane/output.py

>  <path_exists>  (2) 
True

>  <E0_value>  (2) 
-1354838.6258243525

>  <E0_units>  (2) 
kJ/mol

>  <thermo_class>  (2) 
NASA

>  <Cp0_value>  (2) 
33.257888

>  <Cp0_units>  (2) 
J/(mol*K)

>  <CpInf_value>  (2) 
232.805216

>  <CpInf_units>  (2) 
J/(mol*K)

>  <Tmin_value>  (2) 
10.0

>  <Tmin_units>  (2) 
K

>  <Tmax_value>  (2) 
3000.0

>  <Tmax_units>  (2) 
K

>  <polynomials>  (2) 
[{"name": "polynomial1", "class": "NASAPolynomial", "Tmin_value": 10.0, "Tmin_units": "K", "Tmax_value": 400.65806020409946, "Tmax_units": "K", "coeffs": [3.883268576252178, 0.009872966694517036, 7.267081741219709e-05, -1.4952606927169204e-07, 9.638969446192109e-11, -162949446.9996889, 10.213451719731799]}, {"name": "polynomial2", "class": "NASAPolynomial", "Tmin_value": 400.65806020409946, "Tmin_units": "K", "Tmax_value": 3000.0, "Tmax_units": "K", "coeffs": [1.381946217098182, 0.03484518856752169, -2.0821510203899097e-05, 6.039055448516005e-09, -6.791318499482445e-13, -162949246.56534788, 19.9930512432755]}]

>  <H298_value>  (2) 
-323810.2515366824

>  <H298_units>  (2) 
kcal/mol

>  <S298_value>  (2) 
74.2752341119096

>  <S298_units>  (2) 
cal/(mol*K)

>  <Cp_T_value_list>  (2) 
[20.12858317623335, 24.557289426072625, 28.44010285073442, 31.814651802239496, 37.252480139055294, 41.26543233779768, 47.186294391719805, 50.14241959560657, 51.7278549409484]

>  <Cp_T_units>  (2) 
cal/(mol*K)

>  <T_list>  (2) 
[300.0, 400.0, 500.0, 600.0, 800.0, 1000.0, 1500.0, 2000.0, 2400.0]

>  <T_units>  (2) 
K

>  <yaml_path>  (2) 
/home/calvin/Dropbox/PersonalFolders/Calvin/HAb_Converged/rxn_1937/output/Species/rxn_1937_SCC=C/rxn_1937_SCC=C.yml

>  <frequencies_cm1>  (2) 
[109.00652496968, 245.3917204102, 290.63828668367995, 415.01999178484, 607.7556687612799, 738.8738864613599, 795.00462446704, 935.2971345546399, 957.23715265204, 997.0931354493199, 1031.7164754327598, 1111.56578073372, 1232.59639699872, 1263.93045101388, 1318.41311254276, 1435.2480007772401, 1465.33226346416, 1711.0192642431198, 2696.8986126648797, 3040.5500260189597, 3094.0163737204803, 3115.6885793903994, 3138.1779563133996, 3206.45639135016]

>  <ZPE_kJmol>  (2) 
209.0649957029236

>  <E_elec_kJmol>  (2) 
-1355047.6908200553

>  <E0_minus_Eelec_plus_ZPE_kJmol>  (2) 
0.0

>  <rxn>  (2) 
rxn_1937

>  <species_type>  (2) 
p0

>  <species_folder>  (2) 
rxn_1937_SCC=C

>  <frequencies_cm1_list>  (2) 
[109.00652496968, 245.3917204102, 290.63828668367995, 415.01999178484, 607.7556687612799, 738.8738864613599, 795.00462446704, 935.2971345546399, 957.23715265204, 997.0931354493199, 1031.7164754327598, 1111.56578073372, 1232.59639699872, 1263.93045101388, 1318.41311254276, 1435.2480007772401, 1465.33226346416, 1711.0192642431198, 2696.8986126648797, 3040.5500260189597, 3094.0163737204803, 3115.6885793903994, 3138.1779563133996, 3206.45639135016]

>  <E0_kJmol>  (2) 
-1.35484e+06

>  <H298_kJmol>  (2) 
-1.35482e+06

$$$$

     RDKit          3D

 21 19  0  0  0  0  0  0  0  0999 V2000
   -0.4331   -2.1127    0.3758 S   0  0  0  0  0  0  0  0  0  1  0  0
   -0.8851   -0.4289    0.7701 C   0  0  0  0  0  0  0  0  0  2  0  0
   -2.2080    0.0501    0.3646 C   0  0  0  0  0  0  0  0  0  3  0  0
   -2.9148    0.9659    1.0247 C   0  0  0  0  0  0  0  0  0  4  0  0
   -0.7796   -2.0725   -0.9186 H   0  0  0  0  0  0  0  0  0  5  0  0
   -0.6460   -0.2512    1.8179 H   0  0  0  0  0  0  0  0  0  6  0  0
   -2.5974   -0.3413   -0.5717 H   0  0  0  0  0  0  0  0  0  7  0  0
   -2.5680    1.3798    1.9650 H   0  0  0  0  0  0  0  0  0  8  0  0
   -3.8636    1.3235    0.6470 H   0  0  0  0  0  0  0  0  0  9  0  0
    0.7740    0.7163   -1.8952 C   0  0  0  0  0  0  0  0  0 10  0  0
    0.9546    1.1055   -0.4515 C   0  0  0  0  0  3  0  0  0 11  0  0
    2.5108    0.6667    0.2950 S   0  0  0  0  0  0  0  0  0 12  0  0
    0.5494    2.5162   -0.1084 C   0  0  0  0  0  0  0  0  0 13  0  0
    1.0008   -0.3391   -2.0558 H   0  0  0  0  0  0  0  0  0 14  0  0
    1.4271    1.3035   -2.5486 H   0  0  0  0  0  0  0  0  0 15  0  0
   -0.2603    0.8964   -2.2017 H   0  0  0  0  0  0  0  0  0 16  0  0
    0.0136    0.3271    0.1863 H   0  0  0  0  0  0  0  0  0 17  0  0
    2.5118   -0.6189   -0.0850 H   0  0  0  0  0  0  0  0  0 18  0  0
   -0.4857    2.6845   -0.4125 H   0  0  0  0  0  0  0  0  0 19  0  0
    1.1759    3.2502   -0.6269 H   0  0  0  0  0  0  0  0  0 20  0  0
    0.6237    2.7047    0.9637 H   0  0  0  0  0  0  0  0  0 21  0  0
  1  5  1  0
  1  2  1  0
  2  6  1  0
  2  3  1  0
  2 17  1  0
  3  4  1  0
  3  7  1  0
  4  9  1  0
  4  8  1  0
 10 16  1  0
 10 15  1  0
 10 11  1  0
 10 14  1  0
 11 12  1  0
 11 13  1  0
 12 18  1  0
 13 19  1  0
 13 21  1  0
 13 20  1  0
M  RAD  1  11   2
M  END
>  <rmg_smiles>  (3) 
C[C](S)C.[CH2][CH]CS

>  <rmg_adjacency_list>  (3) 
multiplicity 2
1  S u0 p2 c0 {3,S} {20,S}
2  S u0 p2 c0 {6,S} {21,S}
3  C u0 p0 c0 {1,S} {7,S} {9,S} {10,S}
4  C u0 p0 c0 {6,S} {11,S} {12,S} {13,S}
5  C u0 p0 c0 {6,S} {14,S} {15,S} {16,S}
6  C u1 p0 c0 {2,S} {4,S} {5,S}
7  C u0 p0 c0 {3,S} {8,S} {17,S}
8  C u0 p0 c0 {7,S} {18,S} {19,S}
9  H u0 p0 c0 {3,S}
10 H u0 p0 c0 {3,S}
11 H u0 p0 c0 {4,S}
12 H u0 p0 c0 {4,S}
13 H u0 p0 c0 {4,S}
14 H u0 p0 c0 {5,S}
15 H u0 p0 c0 {5,S}
16 H u0 p0 c0 {5,S}
17 H u0 p0 c0 {7,S}
18 H u0 p0 c0 {8,S}
19 H u0 p0 c0 {8,S}
20 H u0 p0 c0 {1,S}
21 H u0 p0 c0 {2,S}


>  <multiplicity>  (3) 
2

>  <reaction>  (3) 
rxn_1937

>  <type>  (3) 
ts

>  <role_mapnums>  (3) 
{"*2": 17, "*1": 11, "*3": 2, "*0": 1, "*4": 12}

>  <role_mapidx>  (3) 
{"*2": 16, "*1": 10, "*3": 1, "*0": 0, "*4": 11}

>  <ordered_mapped_smiles>  (3) 
[S:1]([C:2]([CH:3]([CH:4]([H:8])[H:9])[H:7])([H:6])[H:17])[H:5].[C:10]([C:11]([S:12][H:18])[C:13]([H:19])([H:20])[H:21])([H:14])([H:15])[H:16]

>  <mol_properties>  (3) 
{"0": {"label": "*0", "atom_type": "S2s"}, "1": {"label": "*3", "atom_type": "Cs"}, "10": {"label": "*1", "atom_type": "Cs"}, "11": {"label": "*4", "atom_type": "S2s"}, "16": {"label": "*2", "atom_type": "H0"}}

>  <level_of_theory>  (3) 
wb97xd/def2tzvp

>  <lot_method>  (3) 
wb97xd

>  <lot_basis>  (3) 
def2tzvp

>  <spin_multiplicity>  (3) 
2.0

>  <optical_isomers>  (3) 
2.0

>  <modes>  (3) 
IdealGasTranslation(mass=(149.046, 'amu')),         NonlinearRotor(             inertia = ([343.069, 576.377, 755.345

>  <frequency_value>  (3) 
-1714.54

>  <frequency_units>  (3) 
cm^-1

>  <frequency_list>  (3) 
unknown

>  <arkane_path>  (3) 
/home/calvin/Dropbox/PersonalFolders/Calvin/HAb_Converged/rxn_1937/output/rxns/TS0/arkane/output.py

>  <path_exists>  (3) 
True

>  <E0_value>  (3) 
-2711140.0

>  <E0_units>  (3) 
kJ/mol

>  <thermo_class>  (3) 
unknown

>  <Cp0_value>  (3) 
unknown

>  <Cp0_units>  (3) 
unknown

>  <CpInf_value>  (3) 
unknown

>  <CpInf_units>  (3) 
unknown

>  <Tmin_value>  (3) 
unknown

>  <Tmin_units>  (3) 
unknown

>  <Tmax_value>  (3) 
unknown

>  <Tmax_units>  (3) 
unknown

>  <polynomials>  (3) 
unknown

>  <H298_value>  (3) 
unknown

>  <H298_units>  (3) 
unknown

>  <S298_value>  (3) 
unknown

>  <S298_units>  (3) 
unknown

>  <Cp_T_value_list>  (3) 
unknown

>  <Cp_T_units>  (3) 
unknown

>  <T_list>  (3) 
unknown

>  <T_units>  (3) 
unknown

>  <yaml_path>  (3) 
unknown

>  <frequencies_cm1>  (3) 
unknown

>  <ZPE_kJmol>  (3) 
unknown

>  <E_elec_kJmol>  (3) 
unknown

>  <E0_minus_Eelec_plus_ZPE_kJmol>  (3) 
unknown

>  <rxn>  (3) 
unknown

>  <species_type>  (3) 
unknown

>  <species_folder>  (3) 
unknown

>  <frequencies_cm1_list>  (3) 
[]

>  <ts_imag_freq_cm1>  (3) 
-1735.3609

>  <ts_freq_out_path>  (3) 
/home/calvin/Dropbox/PersonalFolders/Calvin/HAb_Converged/rxn_1937/output/rxns/TS0/geometry/freq.out

>  <E0_kJmol>  (3) 
-2.71114e+06

>  <H298_kJmol>  (3) 
unknown

$$$$

     RDKit          3D

 11 10  0  0  0  0  0  0  0  0999 V2000
    1.0781   -1.0166   -0.1159 C   0  0  0  0  0  0  0  0  0  1  0  0
    0.2180    0.1942   -0.2297 C   0  0  0  0  0  3  0  0  0  2  0  0
    0.9343    1.7769   -0.3011 S   0  0  0  0  0  0  0  0  0  3  0  0
   -1.1949    0.1490    0.2439 C   0  0  0  0  0  0  0  0  0  4  0  0
    1.4718   -1.1461    0.9024 H   0  0  0  0  0  0  0  0  0  5  0  0
    1.9367   -0.9751   -0.7902 H   0  0  0  0  0  0  0  0  0  6  0  0
    0.5033   -1.9136   -0.3576 H   0  0  0  0  0  0  0  0  0  7  0  0
    2.1166    1.4195   -0.8209 H   0  0  0  0  0  0  0  0  0  8  0  0
   -1.2620    0.0939    1.3399 H   0  0  0  0  0  0  0  0  0  9  0  0
   -1.7600    1.0270   -0.0739 H   0  0  0  0  0  0  0  0  0 10  0  0
   -1.6972   -0.7380   -0.1506 H   0  0  0  0  0  0  0  0  0 11  0  0
  1  5  1  0
  1  7  1  0
  1  6  1  0
  1  2  1  0
  2  3  1  0
  2  4  1  0
  3  8  1  0
  4  9  1  0
  4 10  1  0
  4 11  1  0
M  RAD  1   2   2
M  END
>  <rmg_smiles>  (4) 
C[C](S)C

>  <rmg_adjacency_list>  (4) 
multiplicity 2
1  S u0 p2 c0 {4,S} {11,S}
2  C u0 p0 c0 {4,S} {5,S} {6,S} {7,S}
3  C u0 p0 c0 {4,S} {8,S} {9,S} {10,S}
4  C u1 p0 c0 {1,S} {2,S} {3,S}
5  H u0 p0 c0 {2,S}
6  H u0 p0 c0 {2,S}
7  H u0 p0 c0 {2,S}
8  H u0 p0 c0 {3,S}
9  H u0 p0 c0 {3,S}
10 H u0 p0 c0 {3,S}
11 H u0 p0 c0 {1,S}


>  <multiplicity>  (4) 
2

>  <reaction>  (4) 
rxn_1937

>  <type>  (4) 
r1

>  <role_mapnums>  (4) 
{}

>  <role_mapidx>  (4) 
{}

>  <ordered_mapped_smiles>  (4) 
[C:1]([C:2]([S:3][H:8])[C:4]([H:9])([H:10])[H:11])([H:5])([H:6])[H:7]

>  <level_of_theory>  (4) 
wb97xd/def2tzvp

>  <lot_method>  (4) 
wb97xd

>  <lot_basis>  (4) 
def2tzvp

>  <spin_multiplicity>  (4) 
2.0

>  <optical_isomers>  (4) 
2.0

>  <modes>  (4) 
IdealGasTranslation(mass=(75.0268, 'amu')),         NonlinearRotor(             inertia = ([61.999, 107.328, 162.226

>  <frequency_value>  (4) 
unknown

>  <frequency_units>  (4) 
unknown

>  <frequency_list>  (4) 
unknown

>  <arkane_path>  (4) 
/home/calvin/Dropbox/PersonalFolders/Calvin/HAb_Converged/rxn_1937/output/Species/rxn_1937_C[C][S]C/arkane/output.py

>  <path_exists>  (4) 
True

>  <E0_value>  (4) 
-1356347.4134395572

>  <E0_units>  (4) 
kJ/mol

>  <thermo_class>  (4) 
NASA

>  <Cp0_value>  (4) 
33.257888

>  <Cp0_units>  (4) 
J/(mol*K)

>  <CpInf_value>  (4) 
257.748632

>  <CpInf_units>  (4) 
J/(mol*K)

>  <Tmin_value>  (4) 
10.0

>  <Tmin_units>  (4) 
K

>  <Tmax_value>  (4) 
3000.0

>  <Tmax_units>  (4) 
K

>  <polynomials>  (4) 
[{"name": "polynomial1", "class": "NASAPolynomial", "Tmin_value": 10.0, "Tmin_units": "K", "Tmax_value": 631.511036458598, "Tmax_units": "K", "coeffs": [3.630144501923197, 0.030233799754007962, -1.5729865197854517e-05, 1.0342555122076897e-08, -6.278675853253594e-12, -163130908.91812575, 11.085422231430835]}, {"name": "polynomial2", "class": "NASAPolynomial", "Tmin_value": 631.511036458598, "Tmin_units": "K", "Tmax_value": 3000.0, "Tmax_units": "K", "coeffs": [2.121241242594707, 0.035971217312262126, -2.0284227742328106e-05, 5.57187370145946e-09, -5.981486451043817e-13, -163130642.16838282, 18.274548777693933]}]

>  <H298_value>  (4) 
-324170.22635589016

>  <H298_units>  (4) 
kcal/mol

>  <S298_value>  (4) 
79.79982372204114

>  <S298_units>  (4) 
cal/(mol*K)

>  <Cp_T_value_list>  (4) 
[22.878685143927463, 27.24077654618155, 31.22891087325513, 34.831653006690544, 40.78563883173169, 45.27245080713911, 52.09561404746616, 55.50541234106847, 57.22251846881106]

>  <Cp_T_units>  (4) 
cal/(mol*K)

>  <T_list>  (4) 
[300.0, 400.0, 500.0, 600.0, 800.0, 1000.0, 1500.0, 2000.0, 2400.0]

>  <T_units>  (4) 
K

>  <yaml_path>  (4) 
/home/calvin/Dropbox/PersonalFolders/Calvin/HAb_Converged/rxn_1937/output/Species/rxn_1937_C[C][S]C/rxn_1937_CCSC.yml

>  <frequencies_cm1>  (4) 
[136.00751124791998, 145.49081797484, 227.77790306439996, 252.01836124399998, 317.69420884448, 349.40594705224, 628.3497577359599, 911.91504954004, 945.1100565769199, 959.9015429561998, 985.2063838604, 1047.7989550522, 1210.77998463708, 1266.96565852532, 1390.69500002108, 1406.7156767726399, 1455.1279232786399, 1462.5374004389198, 1466.95287199968, 1477.52802939248, 2689.0427814587997, 2949.1641853804, 2953.29124355772, 3034.22553253924, 3035.0633047482797, 3077.07552093604, 3083.7982995643197]

>  <ZPE_kJmol>  (4) 
232.4682179533116

>  <E_elec_kJmol>  (4) 
-1356579.8816575103

>  <E0_minus_Eelec_plus_ZPE_kJmol>  (4) 
0.0

>  <rxn>  (4) 
rxn_1937

>  <species_type>  (4) 
p1

>  <species_folder>  (4) 
rxn_1937_C[C][S]C

>  <frequencies_cm1_list>  (4) 
[136.00751124791998, 145.49081797484, 227.77790306439996, 252.01836124399998, 317.69420884448, 349.40594705224, 628.3497577359599, 911.91504954004, 945.1100565769199, 959.9015429561998, 985.2063838604, 1047.7989550522, 1210.77998463708, 1266.96565852532, 1390.69500002108, 1406.7156767726399, 1455.1279232786399, 1462.5374004389198, 1466.95287199968, 1477.52802939248, 2689.0427814587997, 2949.1641853804, 2953.29124355772, 3034.22553253924, 3035.0633047482797, 3077.07552093604, 3083.7982995643197]

>  <E0_kJmol>  (4) 
-1.35635e+06

>  <H298_kJmol>  (4) 
-1.35633e+06

$$$$

     RDKit          3D

  9  8  0  0  0  0  0  0  0  0999 V2000
    2.3991   -0.1292   -0.2384 S   0  0  0  0  0  0  0  0  0  1  0  0
    0.7460    0.2807    0.0931 C   0  0  0  0  0  3  0  0  0  2  0  0
   -0.3131   -0.5719   -0.2043 C   0  0  0  0  0  0  0  0  0  3  0  0
   -0.2286   -1.8095   -0.7775 C   0  0  0  0  0  0  0  0  0  4  0  0
    2.9373    1.0009    0.2312 H   0  0  0  0  0  0  0  0  0  5  0  0
    0.5618    1.2421    0.5487 H   0  0  0  0  0  0  0  0  0  6  0  0
   -1.2978   -0.1954    0.0537 H   0  0  0  0  0  0  0  0  0  7  0  0
    0.7207   -2.2479   -1.0607 H   0  0  0  0  0  0  0  0  0  8  0  0
   -1.1177   -2.3938   -0.9670 H   0  0  0  0  0  0  0  0  0  9  0  0
  1  2  1  0
  1  5  1  0
  2  6  1  0
  2  3  1  0
  3  4  1  0
  3  7  1  0
  4  8  1  0
  4  9  1  0
M  RAD  1   2   2
M  END
>  <rmg_smiles>  (5) 
[CH2][CH][CH]S

>  <rmg_adjacency_list>  (5) 
multiplicity 2
1 S u0 p2 c0 {3,S} {9,S}
2 C u0 p0 c0 {3,S} {4,S} {5,S}
3 C u1 p0 c0 {1,S} {2,S} {6,S}
4 C u0 p0 c0 {2,S} {7,S} {8,S}
5 H u0 p0 c0 {2,S}
6 H u0 p0 c0 {3,S}
7 H u0 p0 c0 {4,S}
8 H u0 p0 c0 {4,S}
9 H u0 p0 c0 {1,S}


>  <multiplicity>  (5) 
2

>  <reaction>  (5) 
rxn_1937

>  <type>  (5) 
r2

>  <role_mapnums>  (5) 
{}

>  <role_mapidx>  (5) 
{}

>  <ordered_mapped_smiles>  (5) 
[S:1]([C:2]([CH:3]([CH:4]([H:8])[H:9])[H:7])[H:6])[H:5]

>  <level_of_theory>  (5) 
wb97xd/def2tzvp

>  <lot_method>  (5) 
wb97xd

>  <lot_basis>  (5) 
def2tzvp

>  <spin_multiplicity>  (5) 
2.0

>  <optical_isomers>  (5) 
1.0

>  <modes>  (5) 
IdealGasTranslation(mass=(73.0112, 'amu')),         NonlinearRotor(             inertia = ([31.363, 134.913, 166.276

>  <frequency_value>  (5) 
unknown

>  <frequency_units>  (5) 
unknown

>  <frequency_list>  (5) 
unknown

>  <arkane_path>  (5) 
/home/calvin/Dropbox/PersonalFolders/Calvin/HAb_Converged/rxn_1937/output/Species/rxn_1937_S[CH]C=C/arkane/output.py

>  <path_exists>  (5) 
True

>  <E0_value>  (5) 
-1353189.912902829

>  <E0_units>  (5) 
kJ/mol

>  <thermo_class>  (5) 
NASA

>  <Cp0_value>  (5) 
33.257888

>  <Cp0_units>  (5) 
J/(mol*K)

>  <CpInf_value>  (5) 
207.8618

>  <CpInf_units>  (5) 
J/(mol*K)

>  <Tmin_value>  (5) 
10.0

>  <Tmin_units>  (5) 
K

>  <Tmax_value>  (5) 
3000.0

>  <Tmax_units>  (5) 
K

>  <polynomials>  (5) 
[{"name": "polynomial1", "class": "NASAPolynomial", "Tmin_value": 10.0, "Tmin_units": "K", "Tmax_value": 494.182421916781, "Tmax_units": "K", "coeffs": [3.9171373588949456, 0.005296732981537435, 0.00010660061491766757, -2.3200753792228283e-07, 1.5435566423865143e-10, -162751151.45822766, 10.011870120637145]}, {"name": "polynomial2", "class": "NASAPolynomial", "Tmin_value": 494.182421916781, "Tmin_units": "K", "Tmax_value": 3000.0, "Tmax_units": "K", "coeffs": [2.9684844905613335, 0.02976556892789463, -1.8633830366542493e-05, 5.689075317713255e-09, -6.722422089020262e-13, -162751262.7195864, 11.845549052817699]}]

>  <H298_value>  (5) 
-323416.2553145126

>  <H298_units>  (5) 
kcal/mol

>  <S298_value>  (5) 
73.32316749567646

>  <S298_units>  (5) 
cal/(mol*K)

>  <Cp_T_value_list>  (5) 
[20.043540963892376, 24.233886931081226, 27.5465186826771, 30.32748293405113, 34.761695296239196, 37.98953828173351, 42.701336869209946, 45.151374707895805, 46.535171933883085]

>  <Cp_T_units>  (5) 
cal/(mol*K)

>  <T_list>  (5) 
[300.0, 400.0, 500.0, 600.0, 800.0, 1000.0, 1500.0, 2000.0, 2400.0]

>  <T_units>  (5) 
K

>  <yaml_path>  (5) 
/home/calvin/Dropbox/PersonalFolders/Calvin/HAb_Converged/rxn_1937/output/Species/rxn_1937_S[CH]C=C/rxn_1937_SCHC=C.yml

>  <frequencies_cm1>  (5) 
[163.62652620496, 213.33663293644, 322.76891099595997, 534.6497430445601, 548.4317825817999, 640.07856866252, 767.52981620172, 810.9222964388, 939.69200515944, 969.4329185803599, 1056.3483517756, 1131.90579125156, 1228.8126880874, 1369.48974935292, 1427.04882030516, 1524.36086927488, 2717.97339061196, 3127.7744735536003, 3135.08094593408, 3196.4305927829596, 3224.57836560964]

>  <ZPE_kJmol>  (5) 
173.75927083469932

>  <E_elec_kJmol>  (5) 
-1353363.6721736635

>  <E0_minus_Eelec_plus_ZPE_kJmol>  (5) 
0.0

>  <rxn>  (5) 
rxn_1937

>  <species_type>  (5) 
r0

>  <species_folder>  (5) 
rxn_1937_S[CH]C=C

>  <frequencies_cm1_list>  (5) 
[163.62652620496, 213.33663293644, 322.76891099595997, 534.6497430445601, 548.4317825817999, 640.07856866252, 767.52981620172, 810.9222964388, 939.69200515944, 969.4329185803599, 1056.3483517756, 1131.90579125156, 1228.8126880874, 1369.48974935292, 1427.04882030516, 1524.36086927488, 2717.97339061196, 3127.7744735536003, 3135.08094593408, 3196.4305927829596, 3224.57836560964]

>  <E0_kJmol>  (5) 
-1.35319e+06

>  <H298_kJmol>  (5) 
-1.35317e+06

$$$$
