
     RDKit          3D

  8  7  0  0  0  0  0  0  0  0999 V2000
    0.0006    0.2955   -1.8850 C   0  0  0  0  0  2  0  0  0  1  0  0
    0.0002    0.1976   -0.6836 C   0  0  0  0  0  2  0  0  0  2  0  0
   -0.0002    0.2212    0.7059 C   0  0  0  0  0  0  0  0  0  3  0  0
   -0.0006   -0.6900    1.6567 C   0  0  0  0  0  0  0  0  0  4  0  0
    0.0009    0.3539   -2.9470 H   0  0  0  0  0  0  0  0  0  5  0  0
   -0.0002    1.2206    1.1411 H   0  0  0  0  0  0  0  0  0  6  0  0
   -0.0008   -0.3954    2.7015 H   0  0  0  0  0  0  0  0  0  7  0  0
   -0.0006   -1.7530    1.4335 H   0  0  0  0  0  0  0  0  0  8  0  0
  1  5  1  0
  1  2  1  0
  2  3  1  0
  3  4  1  0
  3  6  1  0
  4  8  1  0
  4  7  1  0
M  RAD  2   1   3   2   3
M  END
>  <rmg_smiles>  (1) 
[CH][C][CH][CH2]

>  <rmg_adjacency_list>  (1) 
1 C u0 p0 c0 {2,S} {3,S} {5,S}
2 C u0 p0 c0 {1,S} {6,S} {7,S}
3 C u0 p1 c0 {1,S} {4,S}
4 C u0 p1 c0 {3,S} {8,S}
5 H u0 p0 c0 {1,S}
6 H u0 p0 c0 {2,S}
7 H u0 p0 c0 {2,S}
8 H u0 p0 c0 {4,S}


>  <multiplicity>  (1) 
1

>  <reaction>  (1) 
rxn_1792

>  <type>  (1) 
r1h

>  <role_mapnums>  (1) 
{"r1h_a": 3, "r1h_h": 6}

>  <role_mapidx>  (1) 
{"r1h_a": 2, "r1h_h": 5}

>  <ordered_mapped_smiles>  (1) 
[C:1]([C:2][CH:3]([CH:4]([H:7])[H:8])[H:6])[H:5]

>  <mol_properties>  (1) 
{"2": {"label": "donator", "atom_type": "Cs"}, "5": {"label": "d_hydrogen", "atom_type": "H0"}}

>  <level_of_theory>  (1) 
wb97xd/def2tzvp

>  <lot_method>  (1) 
wb97xd

>  <lot_basis>  (1) 
def2tzvp

>  <spin_multiplicity>  (1) 
1.0

>  <optical_isomers>  (1) 
1.0

>  <modes>  (1) 
IdealGasTranslation(mass=(52.0313, 'amu')),         NonlinearRotor(             inertia = ([9.86559, 105.845, 115.711

>  <frequency_value>  (1) 
unknown

>  <frequency_units>  (1) 
unknown

>  <frequency_list>  (1) 
unknown

>  <arkane_path>  (1) 
/home/calvin/Dropbox/PersonalFolders/Calvin/HAb_Converged/rxn_1792/output/Species/rxn_1792_CtCC=C/arkane/output.py

>  <path_exists>  (1) 
True

>  <E0_value>  (1) 
-406091.886125891

>  <E0_units>  (1) 
kJ/mol

>  <thermo_class>  (1) 
NASA

>  <Cp0_value>  (1) 
33.257888

>  <Cp0_units>  (1) 
J/(mol*K)

>  <CpInf_value>  (1) 
182.918384

>  <CpInf_units>  (1) 
J/(mol*K)

>  <Tmin_value>  (1) 
10.0

>  <Tmin_units>  (1) 
K

>  <Tmax_value>  (1) 
3000.0

>  <Tmax_units>  (1) 
K

>  <polynomials>  (1) 
[{"name": "polynomial1", "class": "NASAPolynomial", "Tmin_value": 10.0, "Tmin_units": "K", "Tmax_value": 539.6924259091454, "Tmax_units": "K", "coeffs": [3.952165135673625, 0.002856988610718535, 7.748969027068091e-05, -1.4636771659515447e-07, 8.592251635550374e-11, -48841570.194759525, 7.59056634578395]}, {"name": "polynomial2", "class": "NASAPolynomial", "Tmin_value": 539.6924259091454, "Tmin_units": "K", "Tmax_value": 3000.0, "Tmax_units": "K", "coeffs": [2.1702296891625794, 0.026363759472425752, -1.64707651230591e-05, 5.0606479604362095e-09, -6.036458079288838e-13, -48841527.85434033, 13.698684547881204]}]

>  <H298_value>  (1) 
-97054.8281313212

>  <H298_units>  (1) 
kcal/mol

>  <S298_value>  (1) 
66.12779656879917

>  <S298_units>  (1) 
cal/(mol*K)

>  <Cp_T_value_list>  (1) 
[16.94566075459627, 20.518689246869094, 23.50323718540477, 25.98049414422314, 29.93477402200161, 32.8291008840918, 37.12176727992767, 39.42923508788264, 40.74274810859482]

>  <Cp_T_units>  (1) 
cal/(mol*K)

>  <T_list>  (1) 
[300.0, 400.0, 500.0, 600.0, 800.0, 1000.0, 1500.0, 2000.0, 2400.0]

>  <T_units>  (1) 
K

>  <yaml_path>  (1) 
/home/calvin/Dropbox/PersonalFolders/Calvin/HAb_Converged/rxn_1792/output/Species/rxn_1792_CtCC=C/rxn_1792_CtCC=C.yml

>  <frequencies_cm1>  (1) 
[225.237118496, 321.82126702179994, 559.30222034336, 675.23753350092, 692.86508481736, 707.3338228865999, 885.99904694236, 971.2114677782399, 1012.2485720505599, 1105.4198288723198, 1315.886061945, 1434.5613022452399, 1683.44831818332, 2214.2525494486795, 3131.88779776028, 3144.7221933233595, 3226.7002640735195, 3436.58967037932]

>  <ZPE_kJmol>  (1) 
159.96902072108773

>  <E_elec_kJmol>  (1) 
-406251.8551466121

>  <E0_minus_Eelec_plus_ZPE_kJmol>  (1) 
0.0

>  <rxn>  (1) 
rxn_1792

>  <species_type>  (1) 
r1

>  <species_folder>  (1) 
rxn_1792_CtCC=C

>  <frequencies_cm1_list>  (1) 
[225.237118496, 321.82126702179994, 559.30222034336, 675.23753350092, 692.86508481736, 707.3338228865999, 885.99904694236, 971.2114677782399, 1012.2485720505599, 1105.4198288723198, 1315.886061945, 1434.5613022452399, 1683.44831818332, 2214.2525494486795, 3131.88779776028, 3144.7221933233595, 3226.7002640735195, 3436.58967037932]

>  <E0_kJmol>  (1) 
-406092

>  <H298_kJmol>  (1) 
-406077

$$$$

     RDKit          3D

  5  4  0  0  0  0  0  0  0  0999 V2000
    0.0005    0.7180   -1.3306 S   0  0  0  0  0  0  0  0  0  1  0  0
    0.0000   -0.5250   -0.1621 C   0  0  0  0  0  0  0  0  0  2  0  0
   -0.0005   -0.5248    1.4323 S   0  0  0  0  0  0  0  0  0  3  0  0
    0.0003    1.7701   -0.4907 H   0  0  0  0  0  0  0  0  0  4  0  0
    0.0001   -1.4705   -0.7045 H   0  0  0  0  0  0  0  0  0  5  0  0
  1  2  1  0
  1  4  1  0
  2  3  1  0
  2  5  1  0
M  END
>  <rmg_smiles>  (2) 
[S][CH]S

>  <rmg_adjacency_list>  (2) 
1 S u0 p2 c0 {3,S} {5,S}
2 S u0 p2 c0 {3,S}
3 C u0 p0 c0 {1,S} {2,S} {4,S}
4 H u0 p0 c0 {3,S}
5 H u0 p0 c0 {1,S}


>  <multiplicity>  (2) 
1

>  <reaction>  (2) 
rxn_1792

>  <type>  (2) 
r2h

>  <role_mapnums>  (2) 
{"r2h_a": 2, "r2h_h": 5}

>  <role_mapidx>  (2) 
{"r2h_a": 1, "r2h_h": 4}

>  <ordered_mapped_smiles>  (2) 
[S:1]([CH:2]([SH:3])[H:5])[H:4]

>  <mol_properties>  (2) 
{"1": {"label": "acceptor", "atom_type": "Cs"}, "4": {"label": "a_hydrogen", "atom_type": "H0"}}

>  <level_of_theory>  (2) 
wb97xd/def2tzvp

>  <lot_method>  (2) 
wb97xd

>  <lot_basis>  (2) 
def2tzvp

>  <spin_multiplicity>  (2) 
1.0

>  <optical_isomers>  (2) 
1.0

>  <modes>  (2) 
IdealGasTranslation(mass=(77.9598, 'amu')),         NonlinearRotor(             inertia = ([10.0264, 146.145, 156.172

>  <frequency_value>  (2) 
unknown

>  <frequency_units>  (2) 
unknown

>  <frequency_list>  (2) 
unknown

>  <arkane_path>  (2) 
/home/calvin/Dropbox/PersonalFolders/Calvin/HAb_Converged/rxn_1792/output/Species/rxn_1792_SC=S/arkane/output.py

>  <path_exists>  (2) 
True

>  <E0_value>  (2) 
-2194033.905997937

>  <E0_units>  (2) 
kJ/mol

>  <thermo_class>  (2) 
NASA

>  <Cp0_value>  (2) 
33.257888

>  <Cp0_units>  (2) 
J/(mol*K)

>  <CpInf_value>  (2) 
108.088136

>  <CpInf_units>  (2) 
J/(mol*K)

>  <Tmin_value>  (2) 
10.0

>  <Tmin_units>  (2) 
K

>  <Tmax_value>  (2) 
3000.0

>  <Tmax_units>  (2) 
K

>  <polynomials>  (2) 
[{"name": "polynomial1", "class": "NASAPolynomial", "Tmin_value": 10.0, "Tmin_units": "K", "Tmax_value": 580.3286830943368, "Tmax_units": "K", "coeffs": [3.9648023297495008, 0.0020289220414139155, 4.369358946104129e-05, -8.278380096298224e-08, 4.716986387017451e-11, -263881325.33914053, 8.531798064925082]}, {"name": "polynomial2", "class": "NASAPolynomial", "Tmin_value": 580.3286830943368, "Tmin_units": "K", "Tmax_value": 3000.0, "Tmax_units": "K", "coeffs": [3.342559955457952, 0.014541878497382567, -9.906251351887283e-06, 3.2098988226728468e-09, -3.9511271280035685e-13, -263881391.6036389, 10.001993510605669]}]

>  <H298_value>  (2) 
-524383.672613201

>  <H298_units>  (2) 
kcal/mol

>  <S298_value>  (2) 
65.63165597743735

>  <S298_units>  (2) 
cal/(mol*K)

>  <Cp_T_value_list>  (2) 
[13.22051774429784, 15.255249180010175, 16.896823584085716, 18.170157980838923, 20.10594315452046, 21.44786652919708, 23.249248092205388, 24.1618451380613, 24.736369643688864]

>  <Cp_T_units>  (2) 
cal/(mol*K)

>  <T_list>  (2) 
[300.0, 400.0, 500.0, 600.0, 800.0, 1000.0, 1500.0, 2000.0, 2400.0]

>  <T_units>  (2) 
K

>  <yaml_path>  (2) 
/home/calvin/Dropbox/PersonalFolders/Calvin/HAb_Converged/rxn_1792/output/Species/rxn_1792_SC=S/rxn_1792_SC=S.yml

>  <frequencies_cm1>  (2) 
[327.91914998595996, 432.32479479124, 696.55952291952, 858.7233812513199, 949.3950554165998, 1080.49953914604, 1319.23715078116, 2671.27789043596, 3080.76309205288]

>  <ZPE_kJmol>  (2) 
68.28704767958558

>  <E_elec_kJmol>  (2) 
-2194102.1930456166

>  <E0_minus_Eelec_plus_ZPE_kJmol>  (2) 
0.0

>  <rxn>  (2) 
rxn_1792

>  <species_type>  (2) 
p0

>  <species_folder>  (2) 
rxn_1792_SC=S

>  <frequencies_cm1_list>  (2) 
[327.91914998595996, 432.32479479124, 696.55952291952, 858.7233812513199, 949.3950554165998, 1080.49953914604, 1319.23715078116, 2671.27789043596, 3080.76309205288]

>  <E0_kJmol>  (2) 
-2.19403e+06

>  <H298_kJmol>  (2) 
-2.19402e+06

$$$$

     RDKit          3D

 12 10  0  0  0  0  0  0  0  0999 V2000
    0.0003    1.9043   -0.5114 S   0  0  0  0  0  0  0  0  0  1  0  0
   -0.0002    0.6613    0.6571 C   0  0  0  0  0  0  0  0  0  2  0  0
   -0.0006    0.6615    2.2516 S   0  0  0  0  0  0  0  0  0  3  0  0
    0.0001    2.9564    0.3286 H   0  0  0  0  0  0  0  0  0  4  0  0
    0.0008   -1.6696   -3.1363 C   0  0  0  0  0  0  0  0  0  5  0  0
    0.0004   -1.7674   -1.9348 C   0  0  0  0  0  0  0  0  0  6  0  0
   -0.0000   -1.7438   -0.5453 C   0  0  0  0  0  3  0  0  0  7  0  0
   -0.0004   -2.6550    0.4054 C   0  0  0  0  0  0  0  0  0  8  0  0
    0.0011   -1.6111   -4.1982 H   0  0  0  0  0  0  0  0  0  9  0  0
   -0.0001   -0.4609    0.0133 H   0  0  0  0  0  0  0  0  0 10  0  0
   -0.0007   -2.3605    1.4503 H   0  0  0  0  0  0  0  0  0 11  0  0
   -0.0004   -3.7181    0.1823 H   0  0  0  0  0  0  0  0  0 12  0  0
  1  2  1  0
  1  4  1  0
  2 10  1  0
  2  3  1  0
  5  6  1  0
  5  9  1  0
  6  7  1  0
  7  8  1  0
  8 11  1  0
  8 12  1  0
M  RAD  1   7   2
M  END
>  <rmg_smiles>  (3) 
[CH][C][C][CH2].[S][CH]S

>  <rmg_adjacency_list>  (3) 
multiplicity 2
1  S u0 p2 c0 {4,S} {11,S}
2  S u0 p2 c0 {4,S}
3  C u0 p0 c0 {5,S} {9,S} {10,S}
4  C u0 p0 c0 {1,S} {2,S} {8,S}
5  C u1 p1 c0 {3,S} {6,S}
6  C u0 p1 c0 {5,S} {7,S}
7  C u0 p1 c0 {6,S} {12,S}
8  H u0 p0 c0 {4,S}
9  H u0 p0 c0 {3,S}
10 H u0 p0 c0 {3,S}
11 H u0 p0 c0 {1,S}
12 H u0 p0 c0 {7,S}


>  <multiplicity>  (3) 
2

>  <reaction>  (3) 
rxn_1792

>  <type>  (3) 
ts

>  <role_mapnums>  (3) 
{"*2": 10, "*1": 7, "*3": 2, "*0": 1, "*4": 6}

>  <role_mapidx>  (3) 
{"*2": 9, "*1": 6, "*3": 1, "*0": 0, "*4": 5}

>  <ordered_mapped_smiles>  (3) 
[S:1]([CH:2]([SH:3])[H:10])[H:4].[CH2:5]([CH2:6][CH:7][CH:8]([H:11])[H:12])[H:9]

>  <mol_properties>  (3) 
{"0": {"label": "*0", "atom_type": "S2s"}, "1": {"label": "*3", "atom_type": "Cs"}, "5": {"label": "*4", "atom_type": "C2s"}, "6": {"label": "*1", "atom_type": "C2s"}, "9": {"label": "*2", "atom_type": "H0"}}

>  <level_of_theory>  (3) 
wb97xd/def2tzvp

>  <lot_method>  (3) 
wb97xd

>  <lot_basis>  (3) 
def2tzvp

>  <spin_multiplicity>  (3) 
2.0

>  <optical_isomers>  (3) 
1.0

>  <modes>  (3) 
IdealGasTranslation(mass=(128.983, 'amu')),         NonlinearRotor(             inertia = ([233.251, 488.6, 721.857

>  <frequency_value>  (3) 
-1704.58

>  <frequency_units>  (3) 
cm^-1

>  <frequency_list>  (3) 
unknown

>  <arkane_path>  (3) 
/home/calvin/Dropbox/PersonalFolders/Calvin/HAb_Converged/rxn_1792/output/rxns/TS0/arkane/output.py

>  <path_exists>  (3) 
True

>  <E0_value>  (3) 
-2598370.0

>  <E0_units>  (3) 
kJ/mol

>  <thermo_class>  (3) 
unknown

>  <Cp0_value>  (3) 
unknown

>  <Cp0_units>  (3) 
unknown

>  <CpInf_value>  (3) 
unknown

>  <CpInf_units>  (3) 
unknown

>  <Tmin_value>  (3) 
unknown

>  <Tmin_units>  (3) 
unknown

>  <Tmax_value>  (3) 
unknown

>  <Tmax_units>  (3) 
unknown

>  <polynomials>  (3) 
unknown

>  <H298_value>  (3) 
unknown

>  <H298_units>  (3) 
unknown

>  <S298_value>  (3) 
unknown

>  <S298_units>  (3) 
unknown

>  <Cp_T_value_list>  (3) 
unknown

>  <Cp_T_units>  (3) 
unknown

>  <T_list>  (3) 
unknown

>  <T_units>  (3) 
unknown

>  <yaml_path>  (3) 
unknown

>  <frequencies_cm1>  (3) 
unknown

>  <ZPE_kJmol>  (3) 
unknown

>  <E_elec_kJmol>  (3) 
unknown

>  <E0_minus_Eelec_plus_ZPE_kJmol>  (3) 
unknown

>  <rxn>  (3) 
unknown

>  <species_type>  (3) 
unknown

>  <species_folder>  (3) 
unknown

>  <frequencies_cm1_list>  (3) 
[]

>  <ts_imag_freq_cm1>  (3) 
-1725.2796

>  <ts_freq_out_path>  (3) 
/home/calvin/Dropbox/PersonalFolders/Calvin/HAb_Converged/rxn_1792/output/rxns/TS0/geometry/freq.out

>  <E0_kJmol>  (3) 
-2.59837e+06

>  <H298_kJmol>  (3) 
unknown

$$$$

     RDKit          3D

  7  6  0  0  0  0  0  0  0  0999 V2000
    1.3002    0.7433    2.1278 C   0  0  0  0  0  0  0  0  0  1  0  0
    0.5758    0.3292    1.2319 C   0  0  0  0  0  0  0  0  0  2  0  0
   -0.2057   -0.1176    0.2652 C   0  0  0  0  0  3  0  0  0  3  0  0
   -0.9747   -0.5572   -0.6858 C   0  0  0  0  0  0  0  0  0  4  0  0
    1.9294    1.1030    2.9059 H   0  0  0  0  0  0  0  0  0  5  0  0
   -1.9977   -0.8727   -0.4932 H   0  0  0  0  0  0  0  0  0  6  0  0
   -0.6274   -0.6280   -1.7142 H   0  0  0  0  0  0  0  0  0  7  0  0
  1  5  1  0
  1  2  1  0
  2  3  1  0
  3  4  1  0
  4  7  1  0
  4  6  1  0
M  RAD  1   3   2
M  END
>  <rmg_smiles>  (4) 
[CH]C[C][CH2]

>  <rmg_adjacency_list>  (4) 
multiplicity 2
1 C u0 p0 c0 {2,S} {5,S} {6,S}
2 C u1 p1 c0 {1,S} {3,S}
3 C u0 p1 c0 {2,S} {4,S}
4 C u0 p1 c0 {3,S} {7,S}
5 H u0 p0 c0 {1,S}
6 H u0 p0 c0 {1,S}
7 H u0 p0 c0 {4,S}


>  <multiplicity>  (4) 
2

>  <reaction>  (4) 
rxn_1792

>  <type>  (4) 
r1

>  <role_mapnums>  (4) 
{}

>  <role_mapidx>  (4) 
{}

>  <ordered_mapped_smiles>  (4) 
[CH2:1]([CH2:2][CH:3][CH:4]([H:6])[H:7])[H:5]

>  <level_of_theory>  (4) 
wb97xd/def2tzvp

>  <lot_method>  (4) 
wb97xd

>  <lot_basis>  (4) 
def2tzvp

>  <spin_multiplicity>  (4) 
2.0

>  <optical_isomers>  (4) 
1.0

>  <modes>  (4) 
IdealGasTranslation(mass=(51.0235, 'amu')),         NonlinearRotor(             inertia = ([1.72772, 120.695, 122.423

>  <frequency_value>  (4) 
unknown

>  <frequency_units>  (4) 
unknown

>  <frequency_list>  (4) 
unknown

>  <arkane_path>  (4) 
/home/calvin/Dropbox/PersonalFolders/Calvin/HAb_Converged/rxn_1792/output/Species/rxn_1792_CtC[C]=C/arkane/output.py

>  <path_exists>  (4) 
True

>  <E0_value>  (4) 
-404373.4126456943

>  <E0_units>  (4) 
kJ/mol

>  <thermo_class>  (4) 
NASA

>  <Cp0_value>  (4) 
33.257888

>  <Cp0_units>  (4) 
J/(mol*K)

>  <CpInf_value>  (4) 
157.97496800000002

>  <CpInf_units>  (4) 
J/(mol*K)

>  <Tmin_value>  (4) 
10.0

>  <Tmin_units>  (4) 
K

>  <Tmax_value>  (4) 
3000.0

>  <Tmax_units>  (4) 
K

>  <polynomials>  (4) 
[{"name": "polynomial1", "class": "NASAPolynomial", "Tmin_value": 10.0, "Tmin_units": "K", "Tmax_value": 324.9457158963899, "Tmax_units": "K", "coeffs": [3.8609581629953698, 0.012108773715760671, 9.28876930189084e-05, -3.603311838422194e-07, 3.942061612520431e-10, -48634890.18419347, 7.523322287052949]}, {"name": "polynomial2", "class": "NASAPolynomial", "Tmin_value": 324.9457158963899, "Tmin_units": "K", "Tmax_value": 3000.0, "Tmax_units": "K", "coeffs": [4.571629097442665, 0.0190882018931712, -1.1931522753254046e-05, 3.668701063805038e-09, -4.367355863151491e-13, -48635019.403776444, 3.6159542428178706]}]

>  <H298_value>  (4) 
-96643.63035785496

>  <H298_units>  (4) 
kcal/mol

>  <S298_value>  (4) 
69.2561647542248

>  <S298_units>  (4) 
cal/(mol*K)

>  <Cp_T_value_list>  (4) 
[18.516016341455217, 20.908358724288533, 22.980336202077368, 24.770609595707512, 27.633108143432025, 29.729153182230846, 32.84633341417178, 34.54516261472726, 35.53925571092175]

>  <Cp_T_units>  (4) 
cal/(mol*K)

>  <T_list>  (4) 
[300.0, 400.0, 500.0, 600.0, 800.0, 1000.0, 1500.0, 2000.0, 2400.0]

>  <T_units>  (4) 
K

>  <yaml_path>  (4) 
/home/calvin/Dropbox/PersonalFolders/Calvin/HAb_Converged/rxn_1792/output/Species/rxn_1792_CtC[C]=C/rxn_1792_CtCC=C.yml

>  <frequencies_cm1>  (4) 
[60.93762772967999, 224.90750320063995, 350.54586661535996, 378.96831885484, 541.79827476268, 666.4752602325999, 890.0643022518001, 901.2506213380799, 969.4947214482399, 1424.2882922065198, 1805.7630607031601, 2002.6326628422398, 3064.4128000059595, 3135.0191430662, 3426.46773401764]

>  <ZPE_kJmol>  (4) 
118.68768783670004

>  <E_elec_kJmol>  (4) 
-404492.100333531

>  <E0_minus_Eelec_plus_ZPE_kJmol>  (4) 
0.0

>  <rxn>  (4) 
rxn_1792

>  <species_type>  (4) 
p1

>  <species_folder>  (4) 
rxn_1792_CtC[C]=C

>  <frequencies_cm1_list>  (4) 
[60.93762772967999, 224.90750320063995, 350.54586661535996, 378.96831885484, 541.79827476268, 666.4752602325999, 890.0643022518001, 901.2506213380799, 969.4947214482399, 1424.2882922065198, 1805.7630607031601, 2002.6326628422398, 3064.4128000059595, 3135.0191430662, 3426.46773401764]

>  <E0_kJmol>  (4) 
-404373

>  <H298_kJmol>  (4) 
-404357

$$$$

     RDKit          3D

  4  3  0  0  0  0  0  0  0  0999 V2000
   -0.7528   -0.8706   -0.3839 S   0  0  0  0  0  0  0  0  0  1  0  0
    0.7502   -0.2564   -0.0649 C   0  0  0  0  0  3  0  0  0  2  0  0
    1.5655    0.9691    0.4633 S   0  0  0  0  0  0  0  0  0  3  0  0
   -1.5629    0.1579   -0.0146 H   0  0  0  0  0  0  0  0  0  4  0  0
  1  2  1  0
  1  4  1  0
  2  3  1  0
M  RAD  1   2   2
M  END
>  <rmg_smiles>  (5) 
[S][C]S

>  <rmg_adjacency_list>  (5) 
multiplicity 2
1 S u0 p2 c0 {3,S} {4,S}
2 S u0 p2 c0 {3,S}
3 C u1 p1 c0 {1,S} {2,S}
4 H u0 p0 c0 {1,S}


>  <multiplicity>  (5) 
2

>  <reaction>  (5) 
rxn_1792

>  <type>  (5) 
r2

>  <role_mapnums>  (5) 
{}

>  <role_mapidx>  (5) 
{}

>  <ordered_mapped_smiles>  (5) 
[S:1]([CH:2][SH:3])[H:4]

>  <level_of_theory>  (5) 
wb97xd/def2tzvp

>  <lot_method>  (5) 
wb97xd

>  <lot_basis>  (5) 
def2tzvp

>  <spin_multiplicity>  (5) 
2.0

>  <optical_isomers>  (5) 
1.0

>  <modes>  (5) 
IdealGasTranslation(mass=(76.952, 'amu')),         NonlinearRotor(             inertia = ([4.22571, 153.623, 157.849

>  <frequency_value>  (5) 
unknown

>  <frequency_units>  (5) 
unknown

>  <frequency_list>  (5) 
unknown

>  <arkane_path>  (5) 
/home/calvin/Dropbox/PersonalFolders/Calvin/HAb_Converged/rxn_1792/output/Species/rxn_1792_S[C]=S/arkane/output.py

>  <path_exists>  (5) 
True

>  <E0_value>  (5) 
-2192356.0916103646

>  <E0_units>  (5) 
kJ/mol

>  <thermo_class>  (5) 
NASA

>  <Cp0_value>  (5) 
33.257888

>  <Cp0_units>  (5) 
J/(mol*K)

>  <CpInf_value>  (5) 
83.14472

>  <CpInf_units>  (5) 
J/(mol*K)

>  <Tmin_value>  (5) 
10.0

>  <Tmin_units>  (5) 
K

>  <Tmax_value>  (5) 
3000.0

>  <Tmax_units>  (5) 
K

>  <polynomials>  (5) 
[{"name": "polynomial1", "class": "NASAPolynomial", "Tmin_value": 10.0, "Tmin_units": "K", "Tmax_value": 481.6514963883675, "Tmax_units": "K", "coeffs": [3.9517586254338513, 0.00319450782852083, 4.0406317044972455e-05, -1.0200918624138463e-07, 7.422315850279269e-11, -263679531.5552502, 9.007005229270508]}, {"name": "polynomial2", "class": "NASAPolynomial", "Tmin_value": 481.6514963883675, "Tmin_units": "K", "Tmax_value": 3000.0, "Tmax_units": "K", "coeffs": [4.350289465934482, 0.00903355618801913, -6.269961593820697e-06, 2.0329790861318483e-09, -2.489707632901742e-13, -263679676.06594586, 6.273837374430621]}]

>  <H298_value>  (5) 
-523982.679250146

>  <H298_units>  (5) 
kcal/mol

>  <S298_value>  (5) 
66.5974874736004

>  <S298_units>  (5) 
cal/(mol*K)

>  <Cp_T_value_list>  (5) 
[12.705481111540664, 14.041794733904966, 14.979838576614517, 15.738862039866001, 16.897745203822076, 17.68194958825418, 18.668016766310146, 19.112665855390723, 19.394133951552263]

>  <Cp_T_units>  (5) 
cal/(mol*K)

>  <T_list>  (5) 
[300.0, 400.0, 500.0, 600.0, 800.0, 1000.0, 1500.0, 2000.0, 2400.0]

>  <T_units>  (5) 
K

>  <yaml_path>  (5) 
/home/calvin/Dropbox/PersonalFolders/Calvin/HAb_Converged/rxn_1792/output/Species/rxn_1792_S[C]=S/rxn_1792_SC=S.yml

>  <frequencies_cm1>  (5) 
[235.08437544487998, 441.86303740072, 611.8689929679599, 952.4165289574, 1320.6586167424, 2476.79799918824]

>  <ZPE_kJmol>  (5) 
36.119394970298

>  <E_elec_kJmol>  (5) 
-2192392.2110053347

>  <E0_minus_Eelec_plus_ZPE_kJmol>  (5) 
0.0

>  <rxn>  (5) 
rxn_1792

>  <species_type>  (5) 
r0

>  <species_folder>  (5) 
rxn_1792_S[C]=S

>  <frequencies_cm1_list>  (5) 
[235.08437544487998, 441.86303740072, 611.8689929679599, 952.4165289574, 1320.6586167424, 2476.79799918824]

>  <E0_kJmol>  (5) 
-2.19236e+06

>  <H298_kJmol>  (5) 
-2.19234e+06

$$$$
