
     RDKit          3D

  7  6  0  0  0  0  0  0  0  0999 V2000
    0.1581    0.2131    1.2526 C   0  0  0  0  0  0  0  0  0  1  0  0
    0.0391    0.0528    0.0025 C   0  0  0  0  0  2  0  0  0  2  0  0
   -0.1658   -0.2235   -1.2729 C   0  0  0  0  0  0  0  0  0  3  0  0
   -0.3977   -0.5366    1.7899 H   0  0  0  0  0  0  0  0  0  4  0  0
    0.6730    0.9075    1.8948 H   0  0  0  0  0  0  0  0  0  5  0  0
   -0.9931    0.2210   -1.8114 H   0  0  0  0  0  0  0  0  0  6  0  0
    0.4998   -0.8859   -1.8115 H   0  0  0  0  0  0  0  0  0  7  0  0
  1  5  1  0
  1  4  1  0
  1  2  1  0
  2  3  1  0
  3  6  1  0
  3  7  1  0
M  RAD  1   2   3
M  END
>  <rmg_smiles>  (1) 
[CH2][C][CH2]

>  <rmg_adjacency_list>  (1) 
1 C u0 p0 c0 {3,S} {4,S} {5,S}
2 C u0 p0 c0 {3,S} {6,S} {7,S}
3 C u0 p1 c0 {1,S} {2,S}
4 H u0 p0 c0 {1,S}
5 H u0 p0 c0 {1,S}
6 H u0 p0 c0 {2,S}
7 H u0 p0 c0 {2,S}


>  <multiplicity>  (1) 
1

>  <reaction>  (1) 
rxn_1840

>  <type>  (1) 
r1h

>  <role_mapnums>  (1) 
{"r1h_a": 1, "r1h_h": 4}

>  <role_mapidx>  (1) 
{"r1h_a": 0, "r1h_h": 3}

>  <ordered_mapped_smiles>  (1) 
[CH:1]([C:2][CH:3]([H:6])[H:7])([H:4])[H:5]

>  <mol_properties>  (1) 
{"0": {"label": "donator", "atom_type": "Cs"}, "3": {"label": "d_hydrogen", "atom_type": "H0"}}

>  <level_of_theory>  (1) 
wb97xd/def2tzvp

>  <lot_method>  (1) 
wb97xd

>  <lot_basis>  (1) 
def2tzvp

>  <spin_multiplicity>  (1) 
1.0

>  <optical_isomers>  (1) 
1.0

>  <modes>  (1) 
IdealGasTranslation(mass=(40.0313, 'amu')),         NonlinearRotor(             inertia = ([3.47492, 56.1175, 56.1175

>  <frequency_value>  (1) 
unknown

>  <frequency_units>  (1) 
unknown

>  <frequency_list>  (1) 
unknown

>  <arkane_path>  (1) 
/home/calvin/Dropbox/PersonalFolders/Calvin/HAb_Converged/rxn_1840/output/Species/rxn_1840_C=C=C/arkane/output.py

>  <path_exists>  (1) 
True

>  <E0_value>  (1) 
-306138.997842003

>  <E0_units>  (1) 
kJ/mol

>  <thermo_class>  (1) 
NASA

>  <Cp0_value>  (1) 
33.257888

>  <Cp0_units>  (1) 
J/(mol*K)

>  <CpInf_value>  (1) 
157.97496800000002

>  <CpInf_units>  (1) 
J/(mol*K)

>  <Tmin_value>  (1) 
10.0

>  <Tmin_units>  (1) 
K

>  <Tmax_value>  (1) 
3000.0

>  <Tmax_units>  (1) 
K

>  <polynomials>  (1) 
[{"name": "polynomial1", "class": "NASAPolynomial", "Tmin_value": 10.0, "Tmin_units": "K", "Tmax_value": 478.689340519761, "Tmax_units": "K", "coeffs": [4.059516161453229, -0.005912614580382805, 9.600646743971966e-05, -1.77788062123867e-07, 1.0996134921450719e-10, -36820016.27934644, 4.873728959152359]}, {"name": "polynomial2", "class": "NASAPolynomial", "Tmin_value": 478.689340519761, "Tmin_units": "K", "Tmax_value": 3000.0, "Tmax_units": "K", "coeffs": [1.5378315597470078, 0.021998336555596625, -1.2885639168275073e-05, 3.7126389769187168e-09, -4.1726814982831054e-13, -36819853.21856111, 14.36318164832194]}]

>  <H298_value>  (1) 
-73166.0043183083

>  <H298_units>  (1) 
kcal/mol

>  <S298_value>  (1) 
57.92822490187408

>  <S298_units>  (1) 
cal/(mol*K)

>  <Cp_T_value_list>  (1) 
[13.943677776035827, 16.87551595392454, 19.382398763692873, 21.552954477195343, 25.077850238681368, 27.71338269288983, 31.716580438515564, 33.81583480861908, 34.95918145570537]

>  <Cp_T_units>  (1) 
cal/(mol*K)

>  <T_list>  (1) 
[300.0, 400.0, 500.0, 600.0, 800.0, 1000.0, 1500.0, 2000.0, 2400.0]

>  <T_units>  (1) 
K

>  <yaml_path>  (1) 
/home/calvin/Dropbox/PersonalFolders/Calvin/HAb_Converged/rxn_1840/output/Species/rxn_1840_C=C=C/rxn_1840_C=C=C.yml

>  <frequencies_cm1>  (1) 
[373.07644545027995, 373.220652142, 876.8041535988799, 876.92775933464, 877.4153152923599, 1011.45886873876, 1011.6717452836799, 1107.69280101324, 1411.7835119388, 1473.7992563637201, 2053.1530738414795, 3116.3066080692, 3118.70318594588, 3198.73789985048, 3198.8546386009198]

>  <ZPE_kJmol>  (1) 
144.0280692503442

>  <E_elec_kJmol>  (1) 
-306283.0259112533

>  <E0_minus_Eelec_plus_ZPE_kJmol>  (1) 
0.0

>  <rxn>  (1) 
rxn_1840

>  <species_type>  (1) 
r1

>  <species_folder>  (1) 
rxn_1840_C=C=C

>  <frequencies_cm1_list>  (1) 
[373.07644545027995, 373.220652142, 876.8041535988799, 876.92775933464, 877.4153152923599, 1011.45886873876, 1011.6717452836799, 1107.69280101324, 1411.7835119388, 1473.7992563637201, 2053.1530738414795, 3116.3066080692, 3118.70318594588, 3198.73789985048, 3198.8546386009198]

>  <E0_kJmol>  (1) 
-306139

>  <H298_kJmol>  (1) 
-306127

$$$$

     RDKit          3D

  6  5  0  0  0  0  0  0  0  0999 V2000
   -0.4036   -0.5441   -1.3066 S   0  0  0  0  0  0  0  0  0  1  0  0
    0.3004    0.4052   -0.2446 C   0  0  0  0  0  0  0  0  0  2  0  0
    0.2985    0.4024    1.1511 C   0  0  0  0  0  2  0  0  0  3  0  0
    0.3576    0.4820    2.3505 C   0  0  0  0  0  2  0  0  0  4  0  0
    0.3931    0.5298    3.4131 H   0  0  0  0  0  0  0  0  0  5  0  0
    0.9009    1.2151   -0.6588 H   0  0  0  0  0  0  0  0  0  6  0  0
  1  2  1  0
  2  6  1  0
  2  3  1  0
  3  4  1  0
  4  5  1  0
M  RAD  2   3   3   4   3
M  END
>  <rmg_smiles>  (2) 
[CH][C][CH][S]

>  <rmg_adjacency_list>  (2) 
1 S u0 p2 c0 {2,S}
2 C u0 p0 c0 {1,S} {3,S} {5,S}
3 C u0 p1 c0 {2,S} {4,S}
4 C u0 p1 c0 {3,S} {6,S}
5 H u0 p0 c0 {2,S}
6 H u0 p0 c0 {4,S}


>  <multiplicity>  (2) 
1

>  <reaction>  (2) 
rxn_1840

>  <type>  (2) 
r2h

>  <role_mapnums>  (2) 
{"r2h_a": 2, "r2h_h": 6}

>  <role_mapidx>  (2) 
{"r2h_a": 1, "r2h_h": 5}

>  <ordered_mapped_smiles>  (2) 
[SH:1][CH:2]([C:3][C:4][H:5])[H:6]

>  <mol_properties>  (2) 
{"1": {"label": "acceptor", "atom_type": "Cs"}, "5": {"label": "a_hydrogen", "atom_type": "H0"}}

>  <level_of_theory>  (2) 
wb97xd/def2tzvp

>  <lot_method>  (2) 
wb97xd

>  <lot_basis>  (2) 
def2tzvp

>  <spin_multiplicity>  (2) 
1.0

>  <optical_isomers>  (2) 
1.0

>  <modes>  (2) 
IdealGasTranslation(mass=(69.9877, 'amu')),         NonlinearRotor(             inertia = ([11.6212, 161.614, 173.235

>  <frequency_value>  (2) 
unknown

>  <frequency_units>  (2) 
unknown

>  <frequency_list>  (2) 
unknown

>  <arkane_path>  (2) 
/home/calvin/Dropbox/PersonalFolders/Calvin/HAb_Converged/rxn_1840/output/Species/rxn_1840_S=CCtC/arkane/output.py

>  <path_exists>  (2) 
True

>  <E0_value>  (2) 
-1348403.2166827258

>  <E0_units>  (2) 
kJ/mol

>  <thermo_class>  (2) 
NASA

>  <Cp0_value>  (2) 
33.257888

>  <Cp0_units>  (2) 
J/(mol*K)

>  <CpInf_value>  (2) 
133.031552

>  <CpInf_units>  (2) 
J/(mol*K)

>  <Tmin_value>  (2) 
10.0

>  <Tmin_units>  (2) 
K

>  <Tmax_value>  (2) 
3000.0

>  <Tmax_units>  (2) 
K

>  <polynomials>  (2) 
[{"name": "polynomial1", "class": "NASAPolynomial", "Tmin_value": 10.0, "Tmin_units": "K", "Tmax_value": 526.1931186551269, "Tmax_units": "K", "coeffs": [3.9344179530593837, 0.004065911246821127, 6.553703840412658e-05, -1.443495918647441e-07, 9.394913877894461e-11, -162175444.89571163, 8.726396833892856]}, {"name": "polynomial2", "class": "NASAPolynomial", "Tmin_value": 526.1931186551269, "Tmin_units": "K", "Tmax_value": 3000.0, "Tmax_units": "K", "coeffs": [4.093919333345027, 0.01690723381309554, -1.1131975130527351e-05, 3.5450645767000207e-09, -4.3283902101660573e-13, -162175656.24187788, 6.210553362827294]}]

>  <H298_value>  (2) 
-322272.7386756088

>  <H298_units>  (2) 
kcal/mol

>  <S298_value>  (2) 
67.91208442892471

>  <S298_units>  (2) 
cal/(mol*K)

>  <Cp_T_value_list>  (2) 
[15.73087337153612, 18.308993297637482, 20.229276045615624, 21.740807345987587, 24.110825163743634, 25.79672956901056, 28.180916020636673, 29.441614337399088, 30.200603661820587]

>  <Cp_T_units>  (2) 
cal/(mol*K)

>  <T_list>  (2) 
[300.0, 400.0, 500.0, 600.0, 800.0, 1000.0, 1500.0, 2000.0, 2400.0]

>  <T_units>  (2) 
K

>  <yaml_path>  (2) 
/home/calvin/Dropbox/PersonalFolders/Calvin/HAb_Converged/rxn_1840/output/Species/rxn_1840_S=CCtC/rxn_1840_S=CCtC.yml

>  <frequencies_cm1>  (2) 
[195.80521941447998, 323.02298945279995, 518.06597349676, 673.6855948186, 732.2953145248, 869.92343430824, 913.78286954708, 1131.63797882408, 1352.94031473172, 2194.1048145197997, 3080.7287571262796, 3429.86689175104]

>  <ZPE_kJmol>  (2) 
92.2073468060466

>  <E_elec_kJmol>  (2) 
-1348495.424029532

>  <E0_minus_Eelec_plus_ZPE_kJmol>  (2) 
0.0

>  <rxn>  (2) 
rxn_1840

>  <species_type>  (2) 
p0

>  <species_folder>  (2) 
rxn_1840_S=CCtC

>  <frequencies_cm1_list>  (2) 
[195.80521941447998, 323.02298945279995, 518.06597349676, 673.6855948186, 732.2953145248, 869.92343430824, 913.78286954708, 1131.63797882408, 1352.94031473172, 2194.1048145197997, 3080.7287571262796, 3429.86689175104]

>  <E0_kJmol>  (2) 
-1.3484e+06

>  <H298_kJmol>  (2) 
-1.34839e+06

$$$$

     RDKit          3D

 12 10  0  0  0  0  0  0  0  0999 V2000
   -0.9034   -1.2185   -0.4425 S   0  0  0  0  0  0  0  0  0  1  0  0
   -0.1995   -0.2692    0.6195 C   0  0  0  0  0  0  0  0  0  2  0  0
   -0.2014   -0.2719    2.0152 C   0  0  0  0  0  0  0  0  0  3  0  0
   -0.1423   -0.1923    3.2146 C   0  0  0  0  0  0  0  0  0  4  0  0
   -0.1068   -0.1445    4.2772 H   0  0  0  0  0  0  0  0  0  5  0  0
    1.2332    1.6632   -0.5658 C   0  0  0  0  0  0  0  0  0  6  0  0
    1.1142    1.5029   -1.8159 C   0  0  0  0  0  0  0  0  0  7  0  0
    0.9093    1.2266   -3.0913 C   0  0  0  0  0  3  0  0  0  8  0  0
    0.5213    0.7030    0.1224 H   0  0  0  0  0  0  0  0  0  9  0  0
    1.7481    2.3576    0.0764 H   0  0  0  0  0  0  0  0  0 10  0  0
    0.0821    1.6711   -3.6298 H   0  0  0  0  0  0  0  0  0 11  0  0
    1.5750    0.5642   -3.6299 H   0  0  0  0  0  0  0  0  0 12  0  0
  1  2  1  0
  2  9  1  0
  2  3  1  0
  3  4  1  0
  4  5  1  0
  6  7  1  0
  6 10  1  0
  7  8  1  0
  8 11  1  0
  8 12  1  0
M  RAD  1   8   2
M  END
>  <rmg_smiles>  (3) 
[CH][C][CH][S].[CH][C][CH2]

>  <rmg_adjacency_list>  (3) 
multiplicity 2
1  S u0 p2 c0 {3,S}
2  C u1 p0 c0 {5,S} {9,S} {10,S}
3  C u0 p0 c0 {1,S} {4,S} {8,S}
4  C u0 p1 c0 {3,S} {6,S}
5  C u0 p1 c0 {2,S} {7,S}
6  C u0 p1 c0 {4,S} {11,S}
7  C u0 p1 c0 {5,S} {12,S}
8  H u0 p0 c0 {3,S}
9  H u0 p0 c0 {2,S}
10 H u0 p0 c0 {2,S}
11 H u0 p0 c0 {6,S}
12 H u0 p0 c0 {7,S}


>  <multiplicity>  (3) 
2

>  <reaction>  (3) 
rxn_1840

>  <type>  (3) 
ts

>  <role_mapnums>  (3) 
{"*2": 9, "*1": 6, "*3": 2, "*0": 1, "*4": 7}

>  <role_mapidx>  (3) 
{"*2": 8, "*1": 5, "*3": 1, "*0": 0, "*4": 6}

>  <ordered_mapped_smiles>  (3) 
[SH:1][CH:2]([CH2:3][CH2:4][H:5])[H:9].[CH2:6]([CH2:7][C:8]([H:11])[H:12])[H:10]

>  <mol_properties>  (3) 
{"0": {"label": "*0", "atom_type": "S2s"}, "1": {"label": "*3", "atom_type": "Cs"}, "5": {"label": "*1", "atom_type": "C2s"}, "6": {"label": "*4", "atom_type": "C2s"}, "8": {"label": "*2", "atom_type": "H0"}}

>  <level_of_theory>  (3) 
wb97xd/def2tzvp

>  <lot_method>  (3) 
wb97xd

>  <lot_basis>  (3) 
def2tzvp

>  <spin_multiplicity>  (3) 
2.0

>  <optical_isomers>  (3) 
1.0

>  <modes>  (3) 
IdealGasTranslation(mass=(109.011, 'amu')),         NonlinearRotor(             inertia = ([151.775, 447.309, 595.601

>  <frequency_value>  (3) 
-1751.42

>  <frequency_units>  (3) 
cm^-1

>  <frequency_list>  (3) 
unknown

>  <arkane_path>  (3) 
/home/calvin/Dropbox/PersonalFolders/Calvin/HAb_Converged/rxn_1840/output/rxns/TS0/arkane/output.py

>  <path_exists>  (3) 
True

>  <E0_value>  (3) 
-1652800.0

>  <E0_units>  (3) 
kJ/mol

>  <thermo_class>  (3) 
unknown

>  <Cp0_value>  (3) 
unknown

>  <Cp0_units>  (3) 
unknown

>  <CpInf_value>  (3) 
unknown

>  <CpInf_units>  (3) 
unknown

>  <Tmin_value>  (3) 
unknown

>  <Tmin_units>  (3) 
unknown

>  <Tmax_value>  (3) 
unknown

>  <Tmax_units>  (3) 
unknown

>  <polynomials>  (3) 
unknown

>  <H298_value>  (3) 
unknown

>  <H298_units>  (3) 
unknown

>  <S298_value>  (3) 
unknown

>  <S298_units>  (3) 
unknown

>  <Cp_T_value_list>  (3) 
unknown

>  <Cp_T_units>  (3) 
unknown

>  <T_list>  (3) 
unknown

>  <T_units>  (3) 
unknown

>  <yaml_path>  (3) 
unknown

>  <frequencies_cm1>  (3) 
unknown

>  <ZPE_kJmol>  (3) 
unknown

>  <E_elec_kJmol>  (3) 
unknown

>  <E0_minus_Eelec_plus_ZPE_kJmol>  (3) 
unknown

>  <rxn>  (3) 
unknown

>  <species_type>  (3) 
unknown

>  <species_folder>  (3) 
unknown

>  <frequencies_cm1_list>  (3) 
[]

>  <ts_imag_freq_cm1>  (3) 
-1772.6905

>  <ts_freq_out_path>  (3) 
/home/calvin/Dropbox/PersonalFolders/Calvin/HAb_Converged/rxn_1840/output/rxns/TS0/geometry/freq.out

>  <E0_kJmol>  (3) 
-1.6528e+06

>  <H298_kJmol>  (3) 
unknown

$$$$

     RDKit          3D

  6  5  0  0  0  0  0  0  0  0999 V2000
    1.4968   -0.0097    0.1113 C   0  0  0  0  0  0  0  0  0  1  0  0
    0.2829   -0.0018    0.0210 C   0  0  0  0  0  0  0  0  0  2  0  0
   -1.0795    0.0070   -0.0803 C   0  0  0  0  0  3  0  0  0  3  0  0
    2.5571   -0.0165    0.1902 H   0  0  0  0  0  0  0  0  0  4  0  0
   -1.6181    0.9389   -0.1832 H   0  0  0  0  0  0  0  0  0  5  0  0
   -1.6393   -0.9179   -0.0591 H   0  0  0  0  0  0  0  0  0  6  0  0
  1  4  1  0
  1  2  1  0
  2  3  1  0
  3  6  1  0
  3  5  1  0
M  RAD  1   3   2
M  END
>  <rmg_smiles>  (4) 
[CH]C[CH2]

>  <rmg_adjacency_list>  (4) 
multiplicity 2
1 C u1 p0 c0 {2,S} {4,S} {5,S}
2 C u0 p1 c0 {1,S} {3,S}
3 C u0 p1 c0 {2,S} {6,S}
4 H u0 p0 c0 {1,S}
5 H u0 p0 c0 {1,S}
6 H u0 p0 c0 {3,S}


>  <multiplicity>  (4) 
2

>  <reaction>  (4) 
rxn_1840

>  <type>  (4) 
r1

>  <role_mapnums>  (4) 
{}

>  <role_mapidx>  (4) 
{}

>  <ordered_mapped_smiles>  (4) 
[CH2:1]([CH2:2][C:3]([H:5])[H:6])[H:4]

>  <level_of_theory>  (4) 
wb97xd/def2tzvp

>  <lot_method>  (4) 
wb97xd

>  <lot_basis>  (4) 
def2tzvp

>  <spin_multiplicity>  (4) 
2.0

>  <optical_isomers>  (4) 
1.0

>  <modes>  (4) 
IdealGasTranslation(mass=(39.0235, 'amu')),         NonlinearRotor(             inertia = ([1.74527, 52.5377, 54.2829

>  <frequency_value>  (4) 
unknown

>  <frequency_units>  (4) 
unknown

>  <frequency_list>  (4) 
unknown

>  <arkane_path>  (4) 
/home/calvin/Dropbox/PersonalFolders/Calvin/HAb_Converged/rxn_1840/output/Species/rxn_1840_[CH]=C=C/arkane/output.py

>  <path_exists>  (4) 
True

>  <E0_value>  (4) 
-304448.46556643327

>  <E0_units>  (4) 
kJ/mol

>  <thermo_class>  (4) 
NASA

>  <Cp0_value>  (4) 
33.257888

>  <Cp0_units>  (4) 
J/(mol*K)

>  <CpInf_value>  (4) 
133.031552

>  <CpInf_units>  (4) 
J/(mol*K)

>  <Tmin_value>  (4) 
10.0

>  <Tmin_units>  (4) 
K

>  <Tmax_value>  (4) 
3000.0

>  <Tmax_units>  (4) 
K

>  <polynomials>  (4) 
[{"name": "polynomial1", "class": "NASAPolynomial", "Tmin_value": 10.0, "Tmin_units": "K", "Tmax_value": 545.4322858033976, "Tmax_units": "K", "coeffs": [3.9499603218219184, 0.003017565134064686, 5.5663880593738125e-05, -1.145891938777454e-07, 7.087527216200762e-11, -36616690.41912999, 5.464661756584002]}, {"name": "polynomial2", "class": "NASAPolynomial", "Tmin_value": 545.4322858033976, "Tmin_units": "K", "Tmax_value": 3000.0, "Tmax_units": "K", "coeffs": [3.789373911177466, 0.015460066047789113, -9.533910331026645e-06, 2.9656464623318287e-09, -3.6191150968379614e-13, -36616840.46347278, 4.606005615672744]}]

>  <H298_value>  (4) 
-72761.72685205255

>  <H298_units>  (4) 
kcal/mol

>  <S298_value>  (4) 
60.54560432912815

>  <S298_units>  (4) 
cal/(mol*K)

>  <Cp_T_value_list>  (4) 
[14.596350865656005, 16.978505208172123, 18.840244425047544, 20.322925848209742, 22.70561515204646, 24.480922661541676, 27.23477345925829, 28.831290583038445, 29.744408163505042]

>  <Cp_T_units>  (4) 
cal/(mol*K)

>  <T_list>  (4) 
[300.0, 400.0, 500.0, 600.0, 800.0, 1000.0, 1500.0, 2000.0, 2400.0]

>  <T_units>  (4) 
K

>  <yaml_path>  (4) 
/home/calvin/Dropbox/PersonalFolders/Calvin/HAb_Converged/rxn_1840/output/Species/rxn_1840_[CH]=C=C/rxn_1840_CH=C=C.yml

>  <frequencies_cm1>  (4) 
[355.94331707688, 407.51437683008004, 504.51054447508, 653.44172209524, 683.5053838262, 1024.2589293752399, 1075.37676809732, 1445.76135530216, 1997.3313501752, 3133.58394313432, 3230.4359040876, 3427.03082681388]

>  <ZPE_kJmol>  (4) 
107.29725110288972

>  <E_elec_kJmol>  (4) 
-304555.76281753613

>  <E0_minus_Eelec_plus_ZPE_kJmol>  (4) 
0.0

>  <rxn>  (4) 
rxn_1840

>  <species_type>  (4) 
p1

>  <species_folder>  (4) 
rxn_1840_[CH]=C=C

>  <frequencies_cm1_list>  (4) 
[355.94331707688, 407.51437683008004, 504.51054447508, 653.44172209524, 683.5053838262, 1024.2589293752399, 1075.37676809732, 1445.76135530216, 1997.3313501752, 3133.58394313432, 3230.4359040876, 3427.03082681388]

>  <E0_kJmol>  (4) 
-304448

>  <H298_kJmol>  (4) 
-304435

$$$$

     RDKit          3D

  5  4  0  0  0  0  0  0  0  0999 V2000
    2.6254   -0.7183   -0.0520 S   0  0  0  0  0  0  0  0  0  1  0  0
    1.1395   -0.3116    0.0735 C   0  0  0  0  0  3  0  0  0  2  0  0
   -0.1296    0.0355    0.1803 C   0  0  0  0  0  0  0  0  0  3  0  0
   -1.3063    0.3574    0.2794 C   0  0  0  0  0  0  0  0  0  4  0  0
   -2.3291    0.6370    0.3655 H   0  0  0  0  0  0  0  0  0  5  0  0
  1  2  1  0
  2  3  1  0
  3  4  1  0
  4  5  1  0
M  RAD  1   2   2
M  END
>  <rmg_smiles>  (5) 
[CH][C][C][S]

>  <rmg_adjacency_list>  (5) 
multiplicity 2
1 S u0 p2 c0 {3,S}
2 C u0 p1 c0 {3,S} {4,S}
3 C u1 p1 c0 {1,S} {2,S}
4 C u0 p1 c0 {2,S} {5,S}
5 H u0 p0 c0 {4,S}


>  <multiplicity>  (5) 
2

>  <reaction>  (5) 
rxn_1840

>  <type>  (5) 
r2

>  <role_mapnums>  (5) 
{}

>  <role_mapidx>  (5) 
{}

>  <ordered_mapped_smiles>  (5) 
[SH:1][CH:2][CH2:3][CH2:4][H:5]

>  <level_of_theory>  (5) 
wb97xd/def2tzvp

>  <lot_method>  (5) 
wb97xd

>  <lot_basis>  (5) 
def2tzvp

>  <spin_multiplicity>  (5) 
2.0

>  <optical_isomers>  (5) 
1.0

>  <modes>  (5) 
IdealGasTranslation(mass=(68.9799, 'amu')),         LinearRotor(inertia=(188.072, 'amu*angstrom^2'), symmetry=1),         HarmonicOscillator(             frequencies = ([93.9762, 168.165, 201.853, 376.51, 540.872, 717.204, 781.328, 1596.27, 2040.79, 3466.74

>  <frequency_value>  (5) 
unknown

>  <frequency_units>  (5) 
unknown

>  <frequency_list>  (5) 
unknown

>  <arkane_path>  (5) 
/home/calvin/Dropbox/PersonalFolders/Calvin/HAb_Converged/rxn_1840/output/Species/rxn_1840_S=[C]CtC/arkane/output.py

>  <path_exists>  (5) 
True

>  <E0_value>  (5) 
-1346748.5146410295

>  <E0_units>  (5) 
kJ/mol

>  <thermo_class>  (5) 
NASA

>  <Cp0_value>  (5) 
29.100652

>  <Cp0_units>  (5) 
J/(mol*K)

>  <CpInf_value>  (5) 
112.245372

>  <CpInf_units>  (5) 
J/(mol*K)

>  <Tmin_value>  (5) 
10.0

>  <Tmin_units>  (5) 
K

>  <Tmax_value>  (5) 
3000.0

>  <Tmax_units>  (5) 
K

>  <polynomials>  (5) 
[{"name": "polynomial1", "class": "NASAPolynomial", "Tmin_value": 10.0, "Tmin_units": "K", "Tmax_value": 773.9919448230972, "Tmax_units": "K", "coeffs": [3.1109156691613986, 0.029875489250901343, -5.192684073174904e-05, 4.7121263373545504e-08, -1.668331630220406e-11, -161976425.65882143, 9.396019280084907]}, {"name": "polynomial2", "class": "NASAPolynomial", "Tmin_value": 773.9919448230972, "Tmin_units": "K", "Tmax_value": 3000.0, "Tmax_units": "K", "coeffs": [6.440875837598094, 0.00931751658126072, -5.595603202063459e-06, 1.6246416330173693e-09, -1.823344454734095e-13, -161976840.82717568, -5.168032299514703]}]

>  <H298_value>  (5) 
-321876.8689553724

>  <H298_units>  (5) 
kcal/mol

>  <S298_value>  (5) 
67.76217391159089

>  <S298_units>  (5) 
cal/(mol*K)

>  <Cp_T_value_list>  (5) 
[16.965350294592113, 18.56345934502614, 19.701961652258504, 20.58464079992118, 22.000036039193304, 23.061723018924454, 24.615806897058192, 25.383141335335676, 25.79765213724994]

>  <Cp_T_units>  (5) 
cal/(mol*K)

>  <T_list>  (5) 
[300.0, 400.0, 500.0, 600.0, 800.0, 1000.0, 1500.0, 2000.0, 2400.0]

>  <T_units>  (5) 
K

>  <yaml_path>  (5) 
/home/calvin/Dropbox/PersonalFolders/Calvin/HAb_Converged/rxn_1840/output/Species/rxn_1840_S=[C]CtC/rxn_1840_S=CCtC.yml

>  <frequencies_cm1>  (5) 
[92.84850851172, 166.14670981739997, 199.43098766344, 371.99146176972, 534.38193061708, 708.59734818548, 771.9521547477999, 1577.11305050312, 2016.2979636290397, 3425.14240585088]

>  <ZPE_kJmol>  (5) 
58.99925606770148

>  <E_elec_kJmol>  (5) 
-1346807.5138970972

>  <E0_minus_Eelec_plus_ZPE_kJmol>  (5) 
0.0

>  <rxn>  (5) 
rxn_1840

>  <species_type>  (5) 
r0

>  <species_folder>  (5) 
rxn_1840_S=[C]CtC

>  <frequencies_cm1_list>  (5) 
[92.84850851172, 166.14670981739997, 199.43098766344, 371.99146176972, 534.38193061708, 708.59734818548, 771.9521547477999, 1577.11305050312, 2016.2979636290397, 3425.14240585088]

>  <E0_kJmol>  (5) 
-1.34675e+06

>  <H298_kJmol>  (5) 
-1.34673e+06

$$$$
