
     RDKit          3D

 14 13  0  0  0  0  0  0  0  0999 V2000
   -0.0599   -0.6523   -1.3120 C   0  0  0  0  0  0  0  0  0  1  0  0
    0.2090   -0.1362    0.0777 C   0  0  0  0  0  0  0  0  0  2  0  0
    0.6787    1.2941    0.1323 C   0  0  0  0  0  0  0  0  0  3  0  0
   -0.8275   -0.5077    1.1059 C   0  0  0  0  0  0  0  0  0  4  0  0
    0.8032   -0.4947   -1.9620 H   0  0  0  0  0  0  0  0  0  5  0  0
   -0.9160   -0.1337   -1.7611 H   0  0  0  0  0  0  0  0  0  6  0  0
   -0.2892   -1.7200   -1.3029 H   0  0  0  0  0  0  0  0  0  7  0  0
    1.1019   -0.6927    0.3629 H   0  0  0  0  0  0  0  0  0  8  0  0
   -0.1046    1.9760   -0.2214 H   0  0  0  0  0  0  0  0  0  9  0  0
    0.9370    1.5906    1.1511 H   0  0  0  0  0  0  0  0  0 10  0  0
    1.5570    1.4418   -0.5000 H   0  0  0  0  0  0  0  0  0 11  0  0
   -1.0129   -1.5842    1.1140 H   0  0  0  0  0  0  0  0  0 12  0  0
   -1.7832   -0.0128    0.8920 H   0  0  0  0  0  0  0  0  0 13  0  0
   -0.5210   -0.2047    2.1093 H   0  0  0  0  0  0  0  0  0 14  0  0
  1  5  1  0
  1  7  1  0
  1  6  1  0
  1  2  1  0
  2  8  1  0
  2  3  1  0
  2  4  1  0
  3 11  1  0
  3  9  1  0
  3 10  1  0
  4 14  1  0
  4 13  1  0
  4 12  1  0
M  END
>  <rmg_smiles>  (1) 
CC(C)C

>  <rmg_adjacency_list>  (1) 
1  C u0 p0 c0 {2,S} {3,S} {4,S} {5,S}
2  C u0 p0 c0 {1,S} {6,S} {7,S} {8,S}
3  C u0 p0 c0 {1,S} {9,S} {10,S} {11,S}
4  C u0 p0 c0 {1,S} {12,S} {13,S} {14,S}
5  H u0 p0 c0 {1,S}
6  H u0 p0 c0 {2,S}
7  H u0 p0 c0 {2,S}
8  H u0 p0 c0 {2,S}
9  H u0 p0 c0 {3,S}
10 H u0 p0 c0 {3,S}
11 H u0 p0 c0 {3,S}
12 H u0 p0 c0 {4,S}
13 H u0 p0 c0 {4,S}
14 H u0 p0 c0 {4,S}


>  <multiplicity>  (1) 
1

>  <reaction>  (1) 
rxn_962

>  <type>  (1) 
r1h

>  <role_mapnums>  (1) 
{"r1h_a": 2, "r1h_h": 8}

>  <role_mapidx>  (1) 
{"r1h_a": 1, "r1h_h": 7}

>  <ordered_mapped_smiles>  (1) 
[C:1]([C:2]([C:3]([H:9])([H:10])[H:11])([C:4]([H:12])([H:13])[H:14])[H:8])([H:5])([H:6])[H:7]

>  <mol_properties>  (1) 
{"1": {"label": "donator", "atom_type": "Cs"}, "7": {"label": "d_hydrogen", "atom_type": "H0"}}

>  <level_of_theory>  (1) 
wb97xd/def2tzvp

>  <lot_method>  (1) 
wb97xd

>  <lot_basis>  (1) 
def2tzvp

>  <spin_multiplicity>  (1) 
1.0

>  <optical_isomers>  (1) 
1.0

>  <modes>  (1) 
IdealGasTranslation(mass=(58.0782, 'amu')),         NonlinearRotor(             inertia = ([64.472, 64.4729, 111.216

>  <frequency_value>  (1) 
unknown

>  <frequency_units>  (1) 
unknown

>  <frequency_list>  (1) 
unknown

>  <arkane_path>  (1) 
/home/calvin/Dropbox/PersonalFolders/Calvin/HAb_Converged/rxn_962/output/Species/rxn_962_CC[C]C/arkane/output.py

>  <path_exists>  (1) 
True

>  <E0_value>  (1) 
-415716.8621683135

>  <E0_units>  (1) 
kJ/mol

>  <thermo_class>  (1) 
NASA

>  <Cp0_value>  (1) 
33.257888

>  <Cp0_units>  (1) 
J/(mol*K)

>  <CpInf_value>  (1) 
332.57888

>  <CpInf_units>  (1) 
J/(mol*K)

>  <Tmin_value>  (1) 
10.0

>  <Tmin_units>  (1) 
K

>  <Tmax_value>  (1) 
3000.0

>  <Tmax_units>  (1) 
K

>  <polynomials>  (1) 
[{"name": "polynomial1", "class": "NASAPolynomial", "Tmin_value": 10.0, "Tmin_units": "K", "Tmax_value": 537.3542859561892, "Tmax_units": "K", "coeffs": [3.86297886608007, 0.00953937358388243, 8.522820912538109e-05, -1.318454926946497e-07, 6.386866325326181e-11, -49999185.1646162, 7.558198351355493]}, {"name": "polynomial2", "class": "NASAPolynomial", "Tmin_value": 537.3542859561892, "Tmin_units": "K", "Tmax_value": 3000.0, "Tmax_units": "K", "coeffs": [-1.5216681043678568, 0.04962204370744103, -2.6660772621101038e-05, 6.9692142062181225e-09, -7.138448426855688e-13, -49998606.47217067, 30.19161410154221]}]

>  <H298_value>  (1) 
-99354.53936352328

>  <H298_units>  (1) 
kcal/mol

>  <S298_value>  (1) 
69.86197484183445

>  <S298_units>  (1) 
cal/(mol*K)

>  <Cp_T_value_list>  (1) 
[22.560432746856932, 28.838674605522424, 34.67838852684499, 39.876310954196725, 48.465818805601884, 55.03562908878418, 65.24379987340355, 70.37001267462959, 72.85882991435643]

>  <Cp_T_units>  (1) 
cal/(mol*K)

>  <T_list>  (1) 
[300.0, 400.0, 500.0, 600.0, 800.0, 1000.0, 1500.0, 2000.0, 2400.0]

>  <T_units>  (1) 
K

>  <yaml_path>  (1) 
/home/calvin/Dropbox/PersonalFolders/Calvin/HAb_Converged/rxn_962/output/Species/rxn_962_CC[C]C/rxn_962_CCCC.yml

>  <frequencies_cm1>  (1) 
[211.23533542852002, 262.44931194507996, 263.80897503844, 368.928786317, 369.2996035242799, 434.99605208072, 803.952306339, 924.4678987049999, 924.59837142608, 952.9384198417199, 976.0526924288398, 976.28616992972, 1191.0442688274, 1191.1335396365598, 1204.07093997944, 1353.0364525261998, 1353.12572333536, 1393.2220506188398, 1393.26325253076, 1417.2564992388398, 1467.4541619280396, 1473.98466496736, 1474.1426056297198, 1492.49805739008, 1492.55299327264, 1500.8826464658, 2997.83737732856, 2999.9180738805194, 3000.0416796162795, 3005.3841941952396, 3068.5467251685996, 3068.65659693372, 3077.3089984369203, 3079.58197057784, 3083.1528029442397, 3083.3450785332]

>  <ZPE_kJmol>  (1) 
342.9123720617784

>  <E_elec_kJmol>  (1) 
-416059.7745403752

>  <E0_minus_Eelec_plus_ZPE_kJmol>  (1) 
0.0

>  <rxn>  (1) 
rxn_962

>  <species_type>  (1) 
r1

>  <species_folder>  (1) 
rxn_962_CC[C]C

>  <frequencies_cm1_list>  (1) 
[211.23533542852002, 262.44931194507996, 263.80897503844, 368.928786317, 369.2996035242799, 434.99605208072, 803.952306339, 924.4678987049999, 924.59837142608, 952.9384198417199, 976.0526924288398, 976.28616992972, 1191.0442688274, 1191.1335396365598, 1204.07093997944, 1353.0364525261998, 1353.12572333536, 1393.2220506188398, 1393.26325253076, 1417.2564992388398, 1467.4541619280396, 1473.98466496736, 1474.1426056297198, 1492.49805739008, 1492.55299327264, 1500.8826464658, 2997.83737732856, 2999.9180738805194, 3000.0416796162795, 3005.3841941952396, 3068.5467251685996, 3068.65659693372, 3077.3089984369203, 3079.58197057784, 3083.1528029442397, 3083.3450785332]

>  <E0_kJmol>  (1) 
-415717

>  <H298_kJmol>  (1) 
-415699

$$$$

     RDKit          3D

 10  9  0  0  0  0  0  0  0  0999 V2000
    0.9807    0.2741   -1.6164 C   0  0  0  0  0  2  0  0  0  1  0  0
    0.2390   -0.0524   -0.7267 C   0  0  0  0  0  2  0  0  0  2  0  0
   -0.6861   -0.3792    0.3100 C   0  0  0  0  0  0  0  0  0  3  0  0
   -0.3656    0.1427    1.6954 C   0  0  0  0  0  0  0  0  0  4  0  0
    1.6507    0.5443   -2.3963 H   0  0  0  0  0  0  0  0  0  5  0  0
   -0.9799   -1.4285    0.2938 H   0  0  0  0  0  0  0  0  0  6  0  0
   -1.1955   -0.0539    2.3759 H   0  0  0  0  0  0  0  0  0  7  0  0
    0.5290   -0.3323    2.1052 H   0  0  0  0  0  0  0  0  0  8  0  0
   -0.1893    1.2189    1.6698 H   0  0  0  0  0  0  0  0  0  9  0  0
   -1.6145    0.1198    0.0328 H   0  0  0  0  0  0  0  0  0 10  0  0
  1  5  1  0
  1  2  1  0
  2  3  1  0
  3  4  1  0
  3  6  1  0
  3 10  1  0
  4  8  1  0
  4  9  1  0
  4  7  1  0
M  RAD  2   1   3   2   3
M  END
>  <rmg_smiles>  (2) 
[CH][C]CC

>  <rmg_adjacency_list>  (2) 
1  C u0 p0 c0 {2,S} {3,S} {5,S} {6,S}
2  C u0 p0 c0 {1,S} {7,S} {8,S} {9,S}
3  C u0 p1 c0 {1,S} {4,S}
4  C u0 p1 c0 {3,S} {10,S}
5  H u0 p0 c0 {1,S}
6  H u0 p0 c0 {1,S}
7  H u0 p0 c0 {2,S}
8  H u0 p0 c0 {2,S}
9  H u0 p0 c0 {2,S}
10 H u0 p0 c0 {4,S}


>  <multiplicity>  (2) 
1

>  <reaction>  (2) 
rxn_962

>  <type>  (2) 
r2h

>  <role_mapnums>  (2) 
{"r2h_a": 3, "r2h_h": 10}

>  <role_mapidx>  (2) 
{"r2h_a": 2, "r2h_h": 9}

>  <ordered_mapped_smiles>  (2) 
[C:1]([C:2][C:3]([C:4]([H:7])([H:8])[H:9])([H:6])[H:10])[H:5]

>  <mol_properties>  (2) 
{"2": {"label": "acceptor", "atom_type": "Cs"}, "9": {"label": "a_hydrogen", "atom_type": "H0"}}

>  <level_of_theory>  (2) 
wb97xd/def2tzvp

>  <lot_method>  (2) 
wb97xd

>  <lot_basis>  (2) 
def2tzvp

>  <spin_multiplicity>  (2) 
1.0

>  <optical_isomers>  (2) 
1.0

>  <modes>  (2) 
IdealGasTranslation(mass=(54.047, 'amu')),         NonlinearRotor(             inertia = ([18.311, 110.882, 122.965

>  <frequency_value>  (2) 
unknown

>  <frequency_units>  (2) 
unknown

>  <frequency_list>  (2) 
unknown

>  <arkane_path>  (2) 
/home/calvin/Dropbox/PersonalFolders/Calvin/HAb_Converged/rxn_962/output/Species/rxn_962_CtCCC/arkane/output.py

>  <path_exists>  (2) 
True

>  <E0_value>  (2) 
-409281.9068125439

>  <E0_units>  (2) 
kJ/mol

>  <thermo_class>  (2) 
NASA

>  <Cp0_value>  (2) 
33.257888

>  <Cp0_units>  (2) 
J/(mol*K)

>  <CpInf_value>  (2) 
232.805216

>  <CpInf_units>  (2) 
J/(mol*K)

>  <Tmin_value>  (2) 
10.0

>  <Tmin_units>  (2) 
K

>  <Tmax_value>  (2) 
3000.0

>  <Tmax_units>  (2) 
K

>  <polynomials>  (2) 
[{"name": "polynomial1", "class": "NASAPolynomial", "Tmin_value": 10.0, "Tmin_units": "K", "Tmax_value": 360.48121370424, "Tmax_units": "K", "coeffs": [3.964907651517416, 0.0024252181225602747, 0.00010970866124517926, -2.330425775882924e-07, 1.6483387684637681e-10, -49225243.05086936, 8.23900007534587]}, {"name": "polynomial2", "class": "NASAPolynomial", "Tmin_value": 360.48121370424, "Tmin_units": "K", "Tmax_value": 3000.0, "Tmax_units": "K", "coeffs": [1.173366775306642, 0.03340704549885685, -1.9235392341731885e-05, 5.470981511725664e-09, -6.120493514194064e-13, -49225041.83097189, 18.857768088551204]}]

>  <H298_value>  (2) 
-97816.99696801163

>  <H298_units>  (2) 
kcal/mol

>  <S298_value>  (2) 
68.93760489416931

>  <S298_units>  (2) 
cal/(mol*K)

>  <Cp_T_value_list>  (2) 
[19.095578790385176, 23.435119416919605, 27.251876378154844, 30.59356719880144, 36.04553968052718, 40.149424943692715, 46.44174128793762, 49.72179624324852, 51.42678973904542]

>  <Cp_T_units>  (2) 
cal/(mol*K)

>  <T_list>  (2) 
[300.0, 400.0, 500.0, 600.0, 800.0, 1000.0, 1500.0, 2000.0, 2400.0]

>  <T_units>  (2) 
K

>  <yaml_path>  (2) 
/home/calvin/Dropbox/PersonalFolders/Calvin/HAb_Converged/rxn_962/output/Species/rxn_962_CtCCC/rxn_962_CtCCC.yml

>  <frequencies_cm1>  (2) 
[204.17607451956, 218.97442788415998, 366.0789874092, 525.48918462768, 681.08133800824, 687.0144133247201, 787.3273348792799, 847.3241856201199, 1026.4769656336, 1086.98884027344, 1103.26359548184, 1280.9125057102399, 1344.0544357276399, 1402.80149514024, 1466.62325670432, 1482.32805213116, 1490.70577422156, 2222.88434999592, 3023.4855674987602, 3025.88901236076, 3057.6625534364, 3103.54088235932, 3108.5949835548395, 3438.35448560656]

>  <ZPE_kJmol>  (2) 
221.20174166210896

>  <E_elec_kJmol>  (2) 
-409503.108554206

>  <E0_minus_Eelec_plus_ZPE_kJmol>  (2) 
0.0

>  <rxn>  (2) 
rxn_962

>  <species_type>  (2) 
p0

>  <species_folder>  (2) 
rxn_962_CtCCC

>  <frequencies_cm1_list>  (2) 
[204.17607451956, 218.97442788415998, 366.0789874092, 525.48918462768, 681.08133800824, 687.0144133247201, 787.3273348792799, 847.3241856201199, 1026.4769656336, 1086.98884027344, 1103.26359548184, 1280.9125057102399, 1344.0544357276399, 1402.80149514024, 1466.62325670432, 1482.32805213116, 1490.70577422156, 2222.88434999592, 3023.4855674987602, 3025.88901236076, 3057.6625534364, 3103.54088235932, 3108.5949835548395, 3438.35448560656]

>  <E0_kJmol>  (2) 
-409282

>  <H298_kJmol>  (2) 
-409266

$$$$

     RDKit          3D

 23 21  0  0  0  0  0  0  0  0999 V2000
    2.6312   -0.1785   -1.3902 C   0  0  0  0  0  0  0  0  0  1  0  0
    1.8895   -0.5050   -0.5005 C   0  0  0  0  0  0  0  0  0  2  0  0
    0.9644   -0.8318    0.5362 C   0  0  0  0  0  0  0  0  0  3  0  0
    1.2849   -0.3099    1.9215 C   0  0  0  0  0  0  0  0  0  4  0  0
    3.3011    0.0918   -2.1701 H   0  0  0  0  0  0  0  0  0  5  0  0
    0.6706   -1.8811    0.5200 H   0  0  0  0  0  0  0  0  0  6  0  0
    0.4550   -0.5065    2.6021 H   0  0  0  0  0  0  0  0  0  7  0  0
    2.1795   -0.7848    2.3314 H   0  0  0  0  0  0  0  0  0  8  0  0
    1.4612    0.7664    1.8960 H   0  0  0  0  0  0  0  0  0  9  0  0
   -1.5513   -0.0445   -1.5476 C   0  0  0  0  0  0  0  0  0 10  0  0
   -1.2824    0.4716   -0.1579 C   0  0  0  0  0  3  0  0  0 11  0  0
   -0.8127    1.9019   -0.1033 C   0  0  0  0  0  0  0  0  0 12  0  0
   -2.3190    0.1001    0.8703 C   0  0  0  0  0  0  0  0  0 13  0  0
   -0.6882    0.1131   -2.1975 H   0  0  0  0  0  0  0  0  0 14  0  0
   -2.4074    0.4741   -1.9967 H   0  0  0  0  0  0  0  0  0 15  0  0
   -1.7806   -1.1122   -1.5385 H   0  0  0  0  0  0  0  0  0 16  0  0
   -0.1655   -0.2245    0.1989 H   0  0  0  0  0  0  0  0  0 17  0  0
   -1.5960    2.5838   -0.4569 H   0  0  0  0  0  0  0  0  0 18  0  0
   -0.5545    2.1984    0.9155 H   0  0  0  0  0  0  0  0  0 19  0  0
    0.0655    2.0496   -0.7355 H   0  0  0  0  0  0  0  0  0 20  0  0
   -2.5043   -0.9763    0.8785 H   0  0  0  0  0  0  0  0  0 21  0  0
   -3.2747    0.5950    0.6564 H   0  0  0  0  0  0  0  0  0 22  0  0
   -2.0124    0.4031    1.8738 H   0  0  0  0  0  0  0  0  0 23  0  0
  1  5  1  0
  1  2  1  0
  2  3  1  0
  3  4  1  0
  3  6  1  0
  3 17  1  0
  4  9  1  0
  4  7  1  0
  4  8  1  0
 10 16  1  0
 10 15  1  0
 10 11  1  0
 10 14  1  0
 11 13  1  0
 11 12  1  0
 12 19  1  0
 12 18  1  0
 12 20  1  0
 13 23  1  0
 13 21  1  0
 13 22  1  0
M  RAD  1  11   2
M  END
>  <rmg_smiles>  (3) 
C[C](C)C.[CH]CCC

>  <rmg_adjacency_list>  (3) 
multiplicity 2
1  C u0 p0 c0 {2,S} {7,S} {9,S} {10,S}
2  C u0 p0 c0 {1,S} {11,S} {12,S} {13,S}
3  C u0 p0 c0 {6,S} {14,S} {15,S} {16,S}
4  C u0 p0 c0 {6,S} {17,S} {18,S} {19,S}
5  C u0 p0 c0 {6,S} {20,S} {21,S} {22,S}
6  C u1 p0 c0 {3,S} {4,S} {5,S}
7  C u0 p1 c0 {1,S} {8,S}
8  C u0 p1 c0 {7,S} {23,S}
9  H u0 p0 c0 {1,S}
10 H u0 p0 c0 {1,S}
11 H u0 p0 c0 {2,S}
12 H u0 p0 c0 {2,S}
13 H u0 p0 c0 {2,S}
14 H u0 p0 c0 {3,S}
15 H u0 p0 c0 {3,S}
16 H u0 p0 c0 {3,S}
17 H u0 p0 c0 {4,S}
18 H u0 p0 c0 {4,S}
19 H u0 p0 c0 {4,S}
20 H u0 p0 c0 {5,S}
21 H u0 p0 c0 {5,S}
22 H u0 p0 c0 {5,S}
23 H u0 p0 c0 {8,S}


>  <multiplicity>  (3) 
2

>  <reaction>  (3) 
rxn_962

>  <type>  (3) 
ts

>  <role_mapnums>  (3) 
{"*2": 17, "*1": 11, "*3": 3, "*0": 2, "*4": 10}

>  <role_mapidx>  (3) 
{"*2": 16, "*1": 10, "*3": 2, "*0": 1, "*4": 9}

>  <ordered_mapped_smiles>  (3) 
[CH2:1]([CH2:2][C:3]([C:4]([H:7])([H:8])[H:9])([H:6])[H:17])[H:5].[C:10]([C:11]([C:12]([H:18])([H:19])[H:20])[C:13]([H:21])([H:22])[H:23])([H:14])([H:15])[H:16]

>  <mol_properties>  (3) 
{"1": {"label": "*0", "atom_type": "C2s"}, "2": {"label": "*3", "atom_type": "Cs"}, "9": {"label": "*4", "atom_type": "Cs"}, "10": {"label": "*1", "atom_type": "Cs"}, "16": {"label": "*2", "atom_type": "H0"}}

>  <level_of_theory>  (3) 
wb97xd/def2tzvp

>  <lot_method>  (3) 
wb97xd

>  <lot_basis>  (3) 
def2tzvp

>  <spin_multiplicity>  (3) 
2.0

>  <optical_isomers>  (3) 
2.0

>  <modes>  (3) 
IdealGasTranslation(mass=(111.117, 'amu')),         NonlinearRotor(             inertia = ([216.064, 410.463, 499.09

>  <frequency_value>  (3) 
-1666.73

>  <frequency_units>  (3) 
cm^-1

>  <frequency_list>  (3) 
unknown

>  <arkane_path>  (3) 
/home/calvin/Dropbox/PersonalFolders/Calvin/HAb_Converged/rxn_962/output/rxns/TS0/arkane/output.py

>  <path_exists>  (3) 
True

>  <E0_value>  (3) 
-823257.0

>  <E0_units>  (3) 
kJ/mol

>  <thermo_class>  (3) 
unknown

>  <Cp0_value>  (3) 
unknown

>  <Cp0_units>  (3) 
unknown

>  <CpInf_value>  (3) 
unknown

>  <CpInf_units>  (3) 
unknown

>  <Tmin_value>  (3) 
unknown

>  <Tmin_units>  (3) 
unknown

>  <Tmax_value>  (3) 
unknown

>  <Tmax_units>  (3) 
unknown

>  <polynomials>  (3) 
unknown

>  <H298_value>  (3) 
unknown

>  <H298_units>  (3) 
unknown

>  <S298_value>  (3) 
unknown

>  <S298_units>  (3) 
unknown

>  <Cp_T_value_list>  (3) 
unknown

>  <Cp_T_units>  (3) 
unknown

>  <T_list>  (3) 
unknown

>  <T_units>  (3) 
unknown

>  <yaml_path>  (3) 
unknown

>  <frequencies_cm1>  (3) 
unknown

>  <ZPE_kJmol>  (3) 
unknown

>  <E_elec_kJmol>  (3) 
unknown

>  <E0_minus_Eelec_plus_ZPE_kJmol>  (3) 
unknown

>  <rxn>  (3) 
unknown

>  <species_type>  (3) 
unknown

>  <species_folder>  (3) 
unknown

>  <frequencies_cm1_list>  (3) 
[]

>  <ts_imag_freq_cm1>  (3) 
-1686.9728

>  <ts_freq_out_path>  (3) 
/home/calvin/Dropbox/PersonalFolders/Calvin/HAb_Converged/rxn_962/output/rxns/TS0/geometry/freq.out

>  <E0_kJmol>  (3) 
-823257

>  <H298_kJmol>  (3) 
unknown

$$$$

     RDKit          3D

 13 12  0  0  0  0  0  0  0  0999 V2000
   -1.3649   -0.5967   -0.3477 C   0  0  0  0  0  0  0  0  0  1  0  0
   -0.1601   -0.2776    0.4669 C   0  0  0  0  0  3  0  0  0  2  0  0
    1.1241   -0.9571    0.1414 C   0  0  0  0  0  0  0  0  0  3  0  0
   -0.1188    1.0130    1.2082 C   0  0  0  0  0  0  0  0  0  4  0  0
   -1.4265   -1.6632   -0.5770 H   0  0  0  0  0  0  0  0  0  5  0  0
   -2.2859   -0.3004    0.1602 H   0  0  0  0  0  0  0  0  0  6  0  0
   -1.3532   -0.0668   -1.3139 H   0  0  0  0  0  0  0  0  0  7  0  0
    1.6174   -0.4963   -0.7297 H   0  0  0  0  0  0  0  0  0  8  0  0
    0.9723   -2.0104   -0.1064 H   0  0  0  0  0  0  0  0  0  9  0  0
    1.8338   -0.8977    0.9701 H   0  0  0  0  0  0  0  0  0 10  0  0
   -1.0851    1.2507    1.6593 H   0  0  0  0  0  0  0  0  0 11  0  0
    0.6358    1.0009    1.9983 H   0  0  0  0  0  0  0  0  0 12  0  0
    0.1343    1.8546    0.5434 H   0  0  0  0  0  0  0  0  0 13  0  0
  1  5  1  0
  1  7  1  0
  1  6  1  0
  1  2  1  0
  2  3  1  0
  2  4  1  0
  3  9  1  0
  3 10  1  0
  3  8  1  0
  4 13  1  0
  4 12  1  0
  4 11  1  0
M  RAD  1   2   2
M  END
>  <rmg_smiles>  (4) 
C[C](C)C

>  <rmg_adjacency_list>  (4) 
multiplicity 2
1  C u0 p0 c0 {4,S} {5,S} {6,S} {7,S}
2  C u0 p0 c0 {4,S} {8,S} {9,S} {10,S}
3  C u0 p0 c0 {4,S} {11,S} {12,S} {13,S}
4  C u1 p0 c0 {1,S} {2,S} {3,S}
5  H u0 p0 c0 {1,S}
6  H u0 p0 c0 {1,S}
7  H u0 p0 c0 {1,S}
8  H u0 p0 c0 {2,S}
9  H u0 p0 c0 {2,S}
10 H u0 p0 c0 {2,S}
11 H u0 p0 c0 {3,S}
12 H u0 p0 c0 {3,S}
13 H u0 p0 c0 {3,S}


>  <multiplicity>  (4) 
2

>  <reaction>  (4) 
rxn_962

>  <type>  (4) 
r1

>  <role_mapnums>  (4) 
{}

>  <role_mapidx>  (4) 
{}

>  <ordered_mapped_smiles>  (4) 
[C:1]([C:2]([C:3]([H:8])([H:9])[H:10])[C:4]([H:11])([H:12])[H:13])([H:5])([H:6])[H:7]

>  <level_of_theory>  (4) 
wb97xd/def2tzvp

>  <lot_method>  (4) 
wb97xd

>  <lot_basis>  (4) 
def2tzvp

>  <spin_multiplicity>  (4) 
2.0

>  <optical_isomers>  (4) 
1.0

>  <modes>  (4) 
IdealGasTranslation(mass=(57.0704, 'amu')),         NonlinearRotor(             inertia = ([62.748, 62.7522, 115.629

>  <frequency_value>  (4) 
unknown

>  <frequency_units>  (4) 
unknown

>  <frequency_list>  (4) 
unknown

>  <arkane_path>  (4) 
/home/calvin/Dropbox/PersonalFolders/Calvin/HAb_Converged/rxn_962/output/Species/rxn_962_C[C][C]C/arkane/output.py

>  <path_exists>  (4) 
True

>  <E0_value>  (4) 
-414011.8780496678

>  <E0_units>  (4) 
kJ/mol

>  <thermo_class>  (4) 
NASA

>  <Cp0_value>  (4) 
33.257888

>  <Cp0_units>  (4) 
J/(mol*K)

>  <CpInf_value>  (4) 
307.635464

>  <CpInf_units>  (4) 
J/(mol*K)

>  <Tmin_value>  (4) 
10.0

>  <Tmin_units>  (4) 
K

>  <Tmax_value>  (4) 
3000.0

>  <Tmax_units>  (4) 
K

>  <polynomials>  (4) 
[{"name": "polynomial1", "class": "NASAPolynomial", "Tmin_value": 10.0, "Tmin_units": "K", "Tmax_value": 459.6797091912295, "Tmax_units": "K", "coeffs": [3.6279439819328037, 0.0378857507956759, -9.030410387441898e-05, 2.3278228552675298e-07, -1.952270120891809e-10, -49794126.83092897, 8.375693227689762]}, {"name": "polynomial2", "class": "NASAPolynomial", "Tmin_value": 459.6797091912295, "Tmin_units": "K", "Tmax_value": 3000.0, "Tmax_units": "K", "coeffs": [-0.4761525168068533, 0.04577672306034789, -2.5267350408440786e-05, 6.794691714378475e-09, -7.147564860196119e-13, -49793455.573241316, 28.18304528333917]}]

>  <H298_value>  (4) 
-98946.57456768176

>  <H298_units>  (4) 
kcal/mol

>  <S298_value>  (4) 
75.50037626846873

>  <S298_units>  (4) 
cal/(mol*K)

>  <Cp_T_value_list>  (4) 
[22.992143723449576, 28.28558423934442, 33.58386060112587, 38.290798750229186, 46.02417863950313, 51.8922320987406, 60.90991312096073, 65.43736256932003, 67.69211867542992]

>  <Cp_T_units>  (4) 
cal/(mol*K)

>  <T_list>  (4) 
[300.0, 400.0, 500.0, 600.0, 800.0, 1000.0, 1500.0, 2000.0, 2400.0]

>  <T_units>  (4) 
K

>  <yaml_path>  (4) 
/home/calvin/Dropbox/PersonalFolders/Calvin/HAb_Converged/rxn_962/output/Species/rxn_962_C[C][C]C/rxn_962_CCCC.yml

>  <frequencies_cm1>  (4) 
[124.91732995611999, 128.19974893908, 129.14739291323997, 257.15486626336, 382.49794930931995, 382.86189953127996, 764.0551216298, 930.28423527104, 930.3460381389199, 963.9324633390399, 1004.2004652555198, 1004.5300805508798, 1087.7098737320398, 1293.65763046416, 1293.75376825864, 1387.1997044931998, 1387.5361867738798, 1410.6573263463201, 1453.51418172844, 1456.4738524013599, 1456.74166482884, 1475.63960842948, 1478.0018513795599, 1478.2284618951198, 2923.2138478561196, 2923.605266019359, 2931.08341303284, 3026.28729750932, 3027.06326685048, 3028.0727136925198, 3072.2823651826798, 3076.1004090205997, 3076.7184376994]

>  <ZPE_kJmol>  (4) 
303.5265906771737

>  <E_elec_kJmol>  (4) 
-414315.40464034496

>  <E0_minus_Eelec_plus_ZPE_kJmol>  (4) 
0.0

>  <rxn>  (4) 
rxn_962

>  <species_type>  (4) 
p1

>  <species_folder>  (4) 
rxn_962_C[C][C]C

>  <frequencies_cm1_list>  (4) 
[124.91732995611999, 128.19974893908, 129.14739291323997, 257.15486626336, 382.49794930931995, 382.86189953127996, 764.0551216298, 930.28423527104, 930.3460381389199, 963.9324633390399, 1004.2004652555198, 1004.5300805508798, 1087.7098737320398, 1293.65763046416, 1293.75376825864, 1387.1997044931998, 1387.5361867738798, 1410.6573263463201, 1453.51418172844, 1456.4738524013599, 1456.74166482884, 1475.63960842948, 1478.0018513795599, 1478.2284618951198, 2923.2138478561196, 2923.605266019359, 2931.08341303284, 3026.28729750932, 3027.06326685048, 3028.0727136925198, 3072.2823651826798, 3076.1004090205997, 3076.7184376994]

>  <E0_kJmol>  (4) 
-414012

>  <H298_kJmol>  (4) 
-413992

$$$$

     RDKit          3D

  9  8  0  0  0  0  0  0  0  0999 V2000
    2.3038   -0.0269    0.1590 C   0  0  0  0  0  0  0  0  0  1  0  0
    1.1426    0.1377   -0.1648 C   0  0  0  0  0  0  0  0  0  2  0  0
   -0.1694    0.3175   -0.5203 C   0  0  0  0  0  3  0  0  0  3  0  0
   -1.3163   -0.1910    0.2856 C   0  0  0  0  0  0  0  0  0  4  0  0
    3.3199   -0.1683    0.4378 H   0  0  0  0  0  0  0  0  0  5  0  0
   -0.3786    0.8584   -1.4360 H   0  0  0  0  0  0  0  0  0  6  0  0
   -1.9694    0.6309    0.5951 H   0  0  0  0  0  0  0  0  0  7  0  0
   -1.9325   -0.8770   -0.3039 H   0  0  0  0  0  0  0  0  0  8  0  0
   -0.9753   -0.7144    1.1774 H   0  0  0  0  0  0  0  0  0  9  0  0
  1  5  1  0
  1  2  1  0
  2  3  1  0
  3  4  1  0
  3  6  1  0
  4  8  1  0
  4  9  1  0
  4  7  1  0
M  RAD  1   3   2
M  END
>  <rmg_smiles>  (5) 
[CH]C[CH]C

>  <rmg_adjacency_list>  (5) 
multiplicity 2
1 C u0 p0 c0 {2,S} {5,S} {6,S} {7,S}
2 C u1 p0 c0 {1,S} {3,S} {8,S}
3 C u0 p1 c0 {2,S} {4,S}
4 C u0 p1 c0 {3,S} {9,S}
5 H u0 p0 c0 {1,S}
6 H u0 p0 c0 {1,S}
7 H u0 p0 c0 {1,S}
8 H u0 p0 c0 {2,S}
9 H u0 p0 c0 {4,S}


>  <multiplicity>  (5) 
2

>  <reaction>  (5) 
rxn_962

>  <type>  (5) 
r2

>  <role_mapnums>  (5) 
{}

>  <role_mapidx>  (5) 
{}

>  <ordered_mapped_smiles>  (5) 
[CH2:1]([CH2:2][C:3]([C:4]([H:7])([H:8])[H:9])[H:6])[H:5]

>  <level_of_theory>  (5) 
wb97xd/def2tzvp

>  <lot_method>  (5) 
wb97xd

>  <lot_basis>  (5) 
def2tzvp

>  <spin_multiplicity>  (5) 
2.0

>  <optical_isomers>  (5) 
1.0

>  <modes>  (5) 
IdealGasTranslation(mass=(53.0391, 'amu')),         NonlinearRotor(             inertia = ([13.0163, 113.224, 123.133

>  <frequency_value>  (5) 
unknown

>  <frequency_units>  (5) 
unknown

>  <frequency_list>  (5) 
unknown

>  <arkane_path>  (5) 
/home/calvin/Dropbox/PersonalFolders/Calvin/HAb_Converged/rxn_962/output/Species/rxn_962_CtC[CH]C/arkane/output.py

>  <path_exists>  (5) 
True

>  <E0_value>  (5) 
-407611.0180987149

>  <E0_units>  (5) 
kJ/mol

>  <thermo_class>  (5) 
NASA

>  <Cp0_value>  (5) 
33.257888

>  <Cp0_units>  (5) 
J/(mol*K)

>  <CpInf_value>  (5) 
207.8618

>  <CpInf_units>  (5) 
J/(mol*K)

>  <Tmin_value>  (5) 
10.0

>  <Tmin_units>  (5) 
K

>  <Tmax_value>  (5) 
3000.0

>  <Tmax_units>  (5) 
K

>  <polynomials>  (5) 
[{"name": "polynomial1", "class": "NASAPolynomial", "Tmin_value": 10.0, "Tmin_units": "K", "Tmax_value": 225.12244092476377, "Tmax_units": "K", "coeffs": [3.9266130103725434, 0.006751552972290672, 0.0001283541194316844, -4.2549688859148007e-07, 4.774737524189803e-10, -49024283.39050682, 9.03931398875942]}, {"name": "polynomial2", "class": "NASAPolynomial", "Tmin_value": 225.12244092476377, "Tmin_units": "K", "Tmax_value": 3000.0, "Tmax_units": "K", "coeffs": [2.698793800089887, 0.02856763785346583, -1.700774111948388e-05, 4.9718456847290095e-09, -5.66009400316375e-13, -49024228.10872656, 13.132014034873661]}]

>  <H298_value>  (5) 
-97417.42510508596

>  <H298_units>  (5) 
kcal/mol

>  <S298_value>  (5) 
72.15152284270778

>  <S298_units>  (5) 
cal/(mol*K)

>  <Cp_T_value_list>  (5) 
[19.609840418917145, 23.266846927668503, 26.46319689496793, 29.246023227567047, 33.746139284951916, 37.090269030960386, 42.123590532288944, 44.75530859912038, 46.19956450688901]

>  <Cp_T_units>  (5) 
cal/(mol*K)

>  <T_list>  (5) 
[300.0, 400.0, 500.0, 600.0, 800.0, 1000.0, 1500.0, 2000.0, 2400.0]

>  <T_units>  (5) 
K

>  <yaml_path>  (5) 
/home/calvin/Dropbox/PersonalFolders/Calvin/HAb_Converged/rxn_962/output/Species/rxn_962_CtC[CH]C/rxn_962_CtCCHC.yml

>  <frequencies_cm1>  (5) 
[83.4682065646, 211.55121675324, 392.1460636839199, 478.7318815838, 554.46786267808, 595.8689171723599, 660.0408949877599, 865.1234115695598, 998.98842339764, 1092.3794237496397, 1143.49726247172, 1380.42198998236, 1394.47184194708, 1461.2464071987597, 1480.32289241772, 2005.2970531463998, 2994.3558157713196, 3043.5921005157197, 3109.55636149964, 3150.5453968747197, 3427.4497129183997]

>  <ZPE_kJmol>  (5) 
182.57126464434097

>  <E_elec_kJmol>  (5) 
-407793.5893633592

>  <E0_minus_Eelec_plus_ZPE_kJmol>  (5) 
0.0

>  <rxn>  (5) 
rxn_962

>  <species_type>  (5) 
r0

>  <species_folder>  (5) 
rxn_962_CtC[CH]C

>  <frequencies_cm1_list>  (5) 
[83.4682065646, 211.55121675324, 392.1460636839199, 478.7318815838, 554.46786267808, 595.8689171723599, 660.0408949877599, 865.1234115695598, 998.98842339764, 1092.3794237496397, 1143.49726247172, 1380.42198998236, 1394.47184194708, 1461.2464071987597, 1480.32289241772, 2005.2970531463998, 2994.3558157713196, 3043.5921005157197, 3109.55636149964, 3150.5453968747197, 3427.4497129183997]

>  <E0_kJmol>  (5) 
-407611

>  <H298_kJmol>  (5) 
-407595

$$$$
