
     RDKit          3D

  7  6  0  0  0  0  0  0  0  0999 V2000
   -0.0004    0.0175   -0.7356 C   0  0  0  0  0  0  0  0  0  1  0  0
   -0.0543   -0.0697    0.7137 N   0  0  0  0  0  0  0  0  0  2  0  0
    0.8554    0.5767   -1.1275 H   0  0  0  0  0  0  0  0  0  3  0  0
   -0.9181    0.4738   -1.1064 H   0  0  0  0  0  0  0  0  0  4  0  0
    0.0560   -0.9988   -1.1366 H   0  0  0  0  0  0  0  0  0  5  0  0
   -0.0840    0.8823    1.0789 H   0  0  0  0  0  0  0  0  0  6  0  0
    0.8558   -0.3796    1.0546 H   0  0  0  0  0  0  0  0  0  7  0  0
  1  5  1  0
  1  2  1  0
  1  4  1  0
  1  3  1  0
  2  6  1  0
  2  7  1  0
M  END
>  <rmg_smiles>  (1) 
CN

>  <rmg_adjacency_list>  (1) 
1 N u0 p1 c0 {2,S} {6,S} {7,S}
2 C u0 p0 c0 {1,S} {3,S} {4,S} {5,S}
3 H u0 p0 c0 {2,S}
4 H u0 p0 c0 {2,S}
5 H u0 p0 c0 {2,S}
6 H u0 p0 c0 {1,S}
7 H u0 p0 c0 {1,S}


>  <multiplicity>  (1) 
1

>  <reaction>  (1) 
rxn_682

>  <type>  (1) 
r1h

>  <role_mapnums>  (1) 
{"r1h_a": 2, "r1h_h": 6}

>  <role_mapidx>  (1) 
{"r1h_a": 1, "r1h_h": 5}

>  <ordered_mapped_smiles>  (1) 
[C:1]([N:2]([H:6])[H:7])([H:3])([H:4])[H:5]

>  <mol_properties>  (1) 
{"1": {"label": "donator", "atom_type": "N3s"}, "5": {"label": "d_hydrogen", "atom_type": "H0"}}

>  <level_of_theory>  (1) 
wb97xd/def2tzvp

>  <lot_method>  (1) 
wb97xd

>  <lot_basis>  (1) 
def2tzvp

>  <spin_multiplicity>  (1) 
1.0

>  <optical_isomers>  (1) 
1.0

>  <modes>  (1) 
IdealGasTranslation(mass=(31.0422, 'amu')),         NonlinearRotor(             inertia = ([4.85067, 22.0117, 22.9283

>  <frequency_value>  (1) 
unknown

>  <frequency_units>  (1) 
unknown

>  <frequency_list>  (1) 
unknown

>  <arkane_path>  (1) 
/home/calvin/Dropbox/PersonalFolders/Calvin/HAb_Converged/rxn_682/output/Species/rxn_682_CN/arkane/output.py

>  <path_exists>  (1) 
True

>  <E0_value>  (1) 
-251531.1758476112

>  <E0_units>  (1) 
kJ/mol

>  <thermo_class>  (1) 
NASA

>  <Cp0_value>  (1) 
33.257888

>  <Cp0_units>  (1) 
J/(mol*K)

>  <CpInf_value>  (1) 
157.97496800000002

>  <CpInf_units>  (1) 
J/(mol*K)

>  <Tmin_value>  (1) 
10.0

>  <Tmin_units>  (1) 
K

>  <Tmax_value>  (1) 
3000.0

>  <Tmax_units>  (1) 
K

>  <polynomials>  (1) 
[{"name": "polynomial1", "class": "NASAPolynomial", "Tmin_value": 10.0, "Tmin_units": "K", "Tmax_value": 844.457330959074, "Tmax_units": "K", "coeffs": [4.045321348954174, -0.0018534872955763757, 3.86717427561662e-05, -4.351987434804008e-08, 1.559009976195819e-11, -30252215.0253288, 5.050279959776207]}, {"name": "polynomial2", "class": "NASAPolynomial", "Tmin_value": 844.457330959074, "Tmin_units": "K", "Tmax_value": 3000.0, "Tmax_units": "K", "coeffs": [0.46356721214888474, 0.020411818745903653, -1.0291063603620473e-05, 2.565739407474925e-09, -2.534983395149771e-13, -30251799.04851106, 20.605866943730152]}]

>  <H298_value>  (1) 
-60114.6443671162

>  <H298_units>  (1) 
kcal/mol

>  <S298_value>  (1) 
57.44707257789568

>  <S298_units>  (1) 
cal/(mol*K)

>  <Cp_T_value_list>  (1) 
[11.766200427346103, 14.119578855233495, 16.535367105274606, 18.829259388171323, 22.685901866509315, 25.62813467296906, 30.40910304060071, 32.97350308463202, 34.246962218683784]

>  <Cp_T_units>  (1) 
cal/(mol*K)

>  <T_list>  (1) 
[300.0, 400.0, 500.0, 600.0, 800.0, 1000.0, 1500.0, 2000.0, 2400.0]

>  <T_units>  (1) 
K

>  <yaml_path>  (1) 
/home/calvin/Dropbox/PersonalFolders/Calvin/HAb_Converged/rxn_682/output/Species/rxn_682_CN/rxn_682_CN.yml

>  <frequencies_cm1>  (1) 
[303.90530232192, 825.76871870064, 973.5531097723599, 1077.4162627373598, 1162.408940043, 1336.34281121328, 1448.3021398705598, 1485.5280672902798, 1504.7418922156398, 1653.6456018945198, 2959.0389102705594, 3050.43161789444, 3088.82493281856, 3504.50415519412, 3583.0968021815197]

>  <ZPE_kJmol>  (1) 
167.22308888854585

>  <E_elec_kJmol>  (1) 
-251698.3989364997

>  <E0_minus_Eelec_plus_ZPE_kJmol>  (1) 
0.0

>  <rxn>  (1) 
rxn_682

>  <species_type>  (1) 
r1

>  <species_folder>  (1) 
rxn_682_CN

>  <frequencies_cm1_list>  (1) 
[303.90530232192, 825.76871870064, 973.5531097723599, 1077.4162627373598, 1162.408940043, 1336.34281121328, 1448.3021398705598, 1485.5280672902798, 1504.7418922156398, 1653.6456018945198, 2959.0389102705594, 3050.43161789444, 3088.82493281856, 3504.50415519412, 3583.0968021815197]

>  <E0_kJmol>  (1) 
-251531

>  <H298_kJmol>  (1) 
-251520

$$$$

     RDKit          3D

  2  1  0  0  0  0  0  0  0  0999 V2000
    0.1313    0.4438    0.0840 H   0  0  0  0  0  0  0  0  0  1  0  0
   -0.0752   -0.2544   -0.0481 H   0  0  0  0  0  0  0  0  0  2  0  0
  1  2  1  0
M  END
>  <rmg_smiles>  (2) 
[H][H]

>  <rmg_adjacency_list>  (2) 
1 H u0 p0 c0 {2,S}
2 H u0 p0 c0 {1,S}


>  <multiplicity>  (2) 
1

>  <reaction>  (2) 
rxn_682

>  <type>  (2) 
r2h

>  <role_mapnums>  (2) 
{"r2h_a": 1, "r2h_h": 2}

>  <role_mapidx>  (2) 
{"r2h_a": 0, "r2h_h": 1}

>  <ordered_mapped_smiles>  (2) 
[H:1][H:2]

>  <mol_properties>  (2) 
{"0": {"label": "acceptor", "atom_type": "H0"}, "1": {"label": "a_hydrogen", "atom_type": "H0"}}

>  <level_of_theory>  (2) 
wb97xd/def2tzvp

>  <lot_method>  (2) 
wb97xd

>  <lot_basis>  (2) 
def2tzvp

>  <spin_multiplicity>  (2) 
1.0

>  <optical_isomers>  (2) 
1.0

>  <modes>  (2) 
IdealGasTranslation(mass=(2.01565, 'amu')),         LinearRotor(inertia=(0.279051, 'amu*angstrom^2'), symmetry=2),         HarmonicOscillator(frequencies=([4384.98

>  <frequency_value>  (2) 
unknown

>  <frequency_units>  (2) 
unknown

>  <frequency_list>  (2) 
unknown

>  <arkane_path>  (2) 
/home/calvin/Dropbox/PersonalFolders/Calvin/HAb_Converged/rxn_682/output/Species/rxn_682_[H][H]/arkane/output.py

>  <path_exists>  (2) 
True

>  <E0_value>  (2) 
-3062.16965545063

>  <E0_units>  (2) 
kJ/mol

>  <thermo_class>  (2) 
NASA

>  <Cp0_value>  (2) 
29.100652

>  <Cp0_units>  (2) 
J/(mol*K)

>  <CpInf_value>  (2) 
37.415124

>  <CpInf_units>  (2) 
J/(mol*K)

>  <Tmin_value>  (2) 
10.0

>  <Tmin_units>  (2) 
K

>  <Tmax_value>  (2) 
3000.0

>  <Tmax_units>  (2) 
K

>  <polynomials>  (2) 
[{"name": "polynomial1", "class": "NASAPolynomial", "Tmin_value": 10.0, "Tmin_units": "K", "Tmax_value": 609.8839760798177, "Tmax_units": "K", "coeffs": [3.498630427760662, 8.118128927195725e-05, -2.559636751505851e-07, 1.12469612407288e-11, 3.0815171130046294e-13, -368293.8823611774, -4.277290681887199]}, {"name": "polynomial2", "class": "NASAPolynomial", "Tmin_value": 609.8839760798177, "Tmin_units": "K", "Tmax_value": 3000.0, "Tmax_units": "K", "coeffs": [3.686867766797846, -0.0007828622299568348, 9.578139376048542e-07, -3.193665739780837e-10, 3.533006631714403e-14, -368323.7341208647, -5.148841965058497]}]

>  <H298_value>  (2) 
-729.8011438890577

>  <H298_units>  (2) 
kcal/mol

>  <S298_value>  (2) 
31.136082854374543

>  <S298_units>  (2) 
cal/(mol*K)

>  <Cp_T_value_list>  (2) 
[6.960683160805141, 6.952753142081975, 6.947066275630451, 6.950370161364484, 7.003977696739648, 7.10979357060473, 7.489089863592967, 7.874797646413975, 8.112273708870758]

>  <Cp_T_units>  (2) 
cal/(mol*K)

>  <T_list>  (2) 
[300.0, 400.0, 500.0, 600.0, 800.0, 1000.0, 1500.0, 2000.0, 2400.0]

>  <T_units>  (2) 
K

>  <yaml_path>  (2) 
/home/calvin/Dropbox/PersonalFolders/Calvin/HAb_Converged/rxn_682/output/Species/rxn_682_[H][H]/rxn_682_HH.yml

>  <frequencies_cm1>  (2) 
[4384.97527895388]

>  <ZPE_kJmol>  (2) 
26.22798418526521

>  <E_elec_kJmol>  (2) 
-3088.3976396358958

>  <E0_minus_Eelec_plus_ZPE_kJmol>  (2) 
0.0

>  <rxn>  (2) 
rxn_682

>  <species_type>  (2) 
p0

>  <species_folder>  (2) 
rxn_682_[H][H]

>  <frequencies_cm1_list>  (2) 
[4384.97527895388]

>  <E0_kJmol>  (2) 
-3062.17

>  <H298_kJmol>  (2) 
-3053.49

$$$$

     RDKit          3D

  8  6  0  0  0  0  0  0  0  0999 V2000
    0.1337    1.8842    1.2945 H   0  0  0  0  0 15  0  0  0  1  0  0
   -0.0388   -0.0737   -0.7668 C   0  0  0  0  0  0  0  0  0  2  0  0
   -0.0928   -0.1610    0.6825 N   0  0  0  0  0  0  0  0  0  3  0  0
    0.8169    0.4855   -1.1587 H   0  0  0  0  0  0  0  0  0  4  0  0
   -0.9566    0.3825   -1.1375 H   0  0  0  0  0  0  0  0  0  5  0  0
    0.0175   -1.0901   -1.1678 H   0  0  0  0  0  0  0  0  0  6  0  0
   -0.1289    0.9965    1.1265 H   0  0  0  0  0  0  0  0  0  7  0  0
    0.8174   -0.4709    1.0234 H   0  0  0  0  0  0  0  0  0  8  0  0
  2  3  1  0
  2  5  1  0
  2  6  1  0
  2  4  1  0
  3  7  1  0
  3  8  1  0
M  END
>  <rmg_smiles>  (3) 
CN

>  <rmg_adjacency_list>  (3) 
multiplicity 2
1 N u0 p1 c0 {2,S} {6,S} {7,S}
2 C u0 p0 c0 {1,S} {3,S} {4,S} {5,S}
3 H u0 p0 c0 {2,S}
4 H u0 p0 c0 {2,S}
5 H u0 p0 c0 {2,S}
6 H u0 p0 c0 {1,S}
7 H u0 p0 c0 {1,S}
8 H u1 p0 c0


>  <multiplicity>  (3) 
2

>  <reaction>  (3) 
rxn_682

>  <type>  (3) 
ts

>  <role_mapnums>  (3) 
{"*2": 7, "*1": 3, "*3": 1, "*0": null, "*4": 2}

>  <role_mapidx>  (3) 
{"*2": 6, "*1": 2, "*3": 0, "*4": 1}

>  <ordered_mapped_smiles>  (3) 
[H:1].[C:2]([N:3]([H:7])[H:8])([H:4])([H:5])[H:6]

>  <mol_properties>  (3) 
{"0": {"label": "*3", "atom_type": "H0"}, "1": {"label": "*4", "atom_type": "Cs"}, "2": {"label": "*1", "atom_type": "N3s"}, "6": {"label": "*2", "atom_type": "H0"}}

>  <level_of_theory>  (3) 
wb97xd/def2tzvp

>  <lot_method>  (3) 
wb97xd

>  <lot_basis>  (3) 
def2tzvp

>  <spin_multiplicity>  (3) 
2.0

>  <optical_isomers>  (3) 
2.0

>  <modes>  (3) 
IdealGasTranslation(mass=(32.05, 'amu')),         NonlinearRotor(             inertia = ([8.76183, 24.4534, 28.4303

>  <frequency_value>  (3) 
-1485.76

>  <frequency_units>  (3) 
cm^-1

>  <frequency_list>  (3) 
unknown

>  <arkane_path>  (3) 
/home/calvin/Dropbox/PersonalFolders/Calvin/HAb_Converged/rxn_682/output/rxns/TS0/arkane/output.py

>  <path_exists>  (3) 
True

>  <E0_value>  (3) 
-252817.0

>  <E0_units>  (3) 
kJ/mol

>  <thermo_class>  (3) 
unknown

>  <Cp0_value>  (3) 
unknown

>  <Cp0_units>  (3) 
unknown

>  <CpInf_value>  (3) 
unknown

>  <CpInf_units>  (3) 
unknown

>  <Tmin_value>  (3) 
unknown

>  <Tmin_units>  (3) 
unknown

>  <Tmax_value>  (3) 
unknown

>  <Tmax_units>  (3) 
unknown

>  <polynomials>  (3) 
unknown

>  <H298_value>  (3) 
unknown

>  <H298_units>  (3) 
unknown

>  <S298_value>  (3) 
unknown

>  <S298_units>  (3) 
unknown

>  <Cp_T_value_list>  (3) 
unknown

>  <Cp_T_units>  (3) 
unknown

>  <T_list>  (3) 
unknown

>  <T_units>  (3) 
unknown

>  <yaml_path>  (3) 
unknown

>  <frequencies_cm1>  (3) 
unknown

>  <ZPE_kJmol>  (3) 
unknown

>  <E_elec_kJmol>  (3) 
unknown

>  <E0_minus_Eelec_plus_ZPE_kJmol>  (3) 
unknown

>  <rxn>  (3) 
unknown

>  <species_type>  (3) 
unknown

>  <species_folder>  (3) 
unknown

>  <frequencies_cm1_list>  (3) 
[]

>  <ts_imag_freq_cm1>  (3) 
-1503.8077

>  <ts_freq_out_path>  (3) 
/home/calvin/Dropbox/PersonalFolders/Calvin/HAb_Converged/rxn_682/output/rxns/TS0/geometry/freq.out

>  <E0_kJmol>  (3) 
-252817

>  <H298_kJmol>  (3) 
unknown

$$$$

     RDKit          3D

  6  5  0  0  0  0  0  0  0  0999 V2000
   -0.3666    0.0231   -0.0032 C   0  0  0  0  0  0  0  0  0  1  0  0
    0.9606    0.5585   -0.0556 N   0  0  0  0  0  2  0  0  0  2  0  0
   -0.5367   -0.7050   -0.8097 H   0  0  0  0  0  0  0  0  0  3  0  0
   -1.1217    0.8102   -0.1439 H   0  0  0  0  0  0  0  0  0  4  0  0
   -0.5467   -0.4669    0.9537 H   0  0  0  0  0  0  0  0  0  5  0  0
    1.0694    1.0027   -0.9708 H   0  0  0  0  0  0  0  0  0  6  0  0
  1  5  1  0
  1  2  1  0
  1  4  1  0
  1  3  1  0
  2  6  1  0
M  RAD  1   2   2
M  END
>  <rmg_smiles>  (4) 
C[NH]

>  <rmg_adjacency_list>  (4) 
multiplicity 2
1 N u1 p1 c0 {2,S} {6,S}
2 C u0 p0 c0 {1,S} {3,S} {4,S} {5,S}
3 H u0 p0 c0 {2,S}
4 H u0 p0 c0 {2,S}
5 H u0 p0 c0 {2,S}
6 H u0 p0 c0 {1,S}


>  <multiplicity>  (4) 
2

>  <reaction>  (4) 
rxn_682

>  <type>  (4) 
r1

>  <role_mapnums>  (4) 
{}

>  <role_mapidx>  (4) 
{}

>  <ordered_mapped_smiles>  (4) 
[C:1]([N:2][H:6])([H:3])([H:4])[H:5]

>  <level_of_theory>  (4) 
wb97xd/def2tzvp

>  <lot_method>  (4) 
wb97xd

>  <lot_basis>  (4) 
def2tzvp

>  <spin_multiplicity>  (4) 
2.0

>  <optical_isomers>  (4) 
1.0

>  <modes>  (4) 
IdealGasTranslation(mass=(30.0344, 'amu')),         NonlinearRotor(             inertia = ([4.03104, 19.6958, 20.6214

>  <frequency_value>  (4) 
unknown

>  <frequency_units>  (4) 
unknown

>  <frequency_list>  (4) 
unknown

>  <arkane_path>  (4) 
/home/calvin/Dropbox/PersonalFolders/Calvin/HAb_Converged/rxn_682/output/Species/rxn_682_C[NH]/arkane/output.py

>  <path_exists>  (4) 
True

>  <E0_value>  (4) 
-249811.5606516403

>  <E0_units>  (4) 
kJ/mol

>  <thermo_class>  (4) 
NASA

>  <Cp0_value>  (4) 
33.257888

>  <Cp0_units>  (4) 
J/(mol*K)

>  <CpInf_value>  (4) 
133.031552

>  <CpInf_units>  (4) 
J/(mol*K)

>  <Tmin_value>  (4) 
10.0

>  <Tmin_units>  (4) 
K

>  <Tmax_value>  (4) 
3000.0

>  <Tmax_units>  (4) 
K

>  <polynomials>  (4) 
[{"name": "polynomial1", "class": "NASAPolynomial", "Tmin_value": 10.0, "Tmin_units": "K", "Tmax_value": 643.0930062557669, "Tmax_units": "K", "coeffs": [4.008207357149749, -0.000661325507016732, 3.213656628417888e-05, -4.009774721118843e-08, 1.621681697645045e-11, -30045390.88826305, 5.665877920467148]}, {"name": "polynomial2", "class": "NASAPolynomial", "Tmin_value": 643.0930062557669, "Tmin_units": "K", "Tmax_value": 3000.0, "Tmax_units": "K", "coeffs": [1.1982503044525954, 0.016817031965378707, -8.632692887616999e-06, 2.167411454134875e-09, -2.1416255848684153e-13, -30045029.487776015, 17.981700803594833]}]

>  <H298_value>  (4) 
-59703.65945019737

>  <H298_units>  (4) 
kcal/mol

>  <S298_value>  (4) 
58.44200376388543

>  <S298_units>  (4) 
cal/(mol*K)

>  <Cp_T_value_list>  (4) 
[11.428062345937153, 13.382688078572677, 15.32736116954841, 17.13202916777426, 20.168051686137098, 22.52665151955416, 26.292838432504812, 28.246616982879214, 29.195466054018723]

>  <Cp_T_units>  (4) 
cal/(mol*K)

>  <T_list>  (4) 
[300.0, 400.0, 500.0, 600.0, 800.0, 1000.0, 1500.0, 2000.0, 2400.0]

>  <T_units>  (4) 
K

>  <yaml_path>  (4) 
/home/calvin/Dropbox/PersonalFolders/Calvin/HAb_Converged/rxn_682/output/Species/rxn_682_C[NH]/rxn_682_CNH.yml

>  <frequencies_cm1>  (4) 
[263.520561655, 947.6645751159599, 1007.53782012104, 1065.1174920292399, 1324.5384634482, 1384.39797448264, 1465.9228242016798, 1472.52886407952, 2940.7383943927603, 2985.43560184064, 3082.54164125076, 3398.34056214692]

>  <ZPE_kJmol>  (4) 
127.63132287184132

>  <E_elec_kJmol>  (4) 
-249939.19197451213

>  <E0_minus_Eelec_plus_ZPE_kJmol>  (4) 
0.0

>  <rxn>  (4) 
rxn_682

>  <species_type>  (4) 
p1

>  <species_folder>  (4) 
rxn_682_C[NH]

>  <frequencies_cm1_list>  (4) 
[263.520561655, 947.6645751159599, 1007.53782012104, 1065.1174920292399, 1324.5384634482, 1384.39797448264, 1465.9228242016798, 1472.52886407952, 2940.7383943927603, 2985.43560184064, 3082.54164125076, 3398.34056214692]

>  <E0_kJmol>  (4) 
-249812

>  <H298_kJmol>  (4) 
-249800

$$$$

     RDKit          3D

  1  0  0  0  0  0  0  0  0  0999 V2000
    0.0000    0.0000    0.0000 H   0  0  0  0  0 15  0  0  0  1  0  0
M  END
>  <rmg_smiles>  (5) 
[H]

>  <rmg_adjacency_list>  (5) 
multiplicity 2
1 H u1 p0 c0


>  <multiplicity>  (5) 
2

>  <reaction>  (5) 
rxn_682

>  <type>  (5) 
r2

>  <role_mapnums>  (5) 
{}

>  <role_mapidx>  (5) 
{}

>  <ordered_mapped_smiles>  (5) 
[H:1]

>  <level_of_theory>  (5) 
wb97xd/def2tzvp

>  <lot_method>  (5) 
wb97xd

>  <lot_basis>  (5) 
def2tzvp

>  <spin_multiplicity>  (5) 
2.0

>  <optical_isomers>  (5) 
1.0

>  <modes>  (5) 
IdealGasTranslation(mass=(1.00797, 'amu')),

>  <frequency_value>  (5) 
unknown

>  <frequency_units>  (5) 
unknown

>  <frequency_list>  (5) 
unknown

>  <arkane_path>  (5) 
/home/calvin/Dropbox/PersonalFolders/Calvin/HAb_Converged/rxn_682/output/Species/rxn_682_[H]/arkane/output.py

>  <path_exists>  (5) 
True

>  <E0_value>  (5) 
-1319.7535890175566

>  <E0_units>  (5) 
kJ/mol

>  <thermo_class>  (5) 
NASA

>  <Cp0_value>  (5) 
20.78618

>  <Cp0_units>  (5) 
J/(mol*K)

>  <CpInf_value>  (5) 
20.78618

>  <CpInf_units>  (5) 
J/(mol*K)

>  <Tmin_value>  (5) 
10.0

>  <Tmin_units>  (5) 
K

>  <Tmax_value>  (5) 
3000.0

>  <Tmax_units>  (5) 
K

>  <polynomials>  (5) 
[{"name": "polynomial1", "class": "NASAPolynomial", "Tmin_value": 10.0, "Tmin_units": "K", "Tmax_value": 1853.5663026740365, "Tmax_units": "K", "coeffs": [2.500000000000126, -2.814048095438137e-15, 9.047587538332909e-18, -8.591944598242694e-21, 2.4182720553650057e-24, -158729.69562032758, -0.461069367474324]}, {"name": "polynomial2", "class": "NASAPolynomial", "Tmin_value": 1853.5663026740365, "Tmin_units": "K", "Tmax_value": 3000.0, "Tmax_units": "K", "coeffs": [2.500000000696122, -1.3129776766613561e-12, 9.140875080033424e-16, -2.782806647322001e-19, 3.1263265306749967e-23, -158729.69562061856, -0.4610693713504795]}]

>  <H298_value>  (5) 
-313.9482141882736

>  <H298_units>  (5) 
kcal/mol

>  <S298_value>  (5) 
27.387012987908147

>  <S298_units>  (5) 
cal/(mol*K)

>  <Cp_T_value_list>  (5) 
[4.968016252389826, 4.968016252389978, 4.968016252390173, 4.96801625239036, 4.968016252390567, 4.968016252390427, 4.968016252389077, 4.968016252391019, 4.968016252390868]

>  <Cp_T_units>  (5) 
cal/(mol*K)

>  <T_list>  (5) 
[300.0, 400.0, 500.0, 600.0, 800.0, 1000.0, 1500.0, 2000.0, 2400.0]

>  <T_units>  (5) 
K

>  <yaml_path>  (5) 
/home/calvin/Dropbox/PersonalFolders/Calvin/HAb_Converged/rxn_682/output/Species/rxn_682_[H]/rxn_682_H.yml

>  <frequencies_cm1>  (5) 
[]

>  <ZPE_kJmol>  (5) 
unknown

>  <E_elec_kJmol>  (5) 
unknown

>  <E0_minus_Eelec_plus_ZPE_kJmol>  (5) 
unknown

>  <rxn>  (5) 
rxn_682

>  <species_type>  (5) 
r0

>  <species_folder>  (5) 
rxn_682_[H]

>  <frequencies_cm1_list>  (5) 
[]

>  <E0_kJmol>  (5) 
-1319.75

>  <H298_kJmol>  (5) 
-1313.56

$$$$
