
     RDKit          3D

 18 18  0  0  0  0  0  0  0  0999 V2000
   -0.5904   -1.9994   -2.1249 C   0  0  0  0  0  0  0  0  0  1  0  0
    0.0988   -1.8501   -0.7881 C   0  0  0  0  0  0  0  0  0  2  0  0
    0.1010   -0.5191   -0.1349 C   0  0  0  0  0  0  0  0  0  3  0  0
   -0.8366    0.4674   -0.4403 C   0  0  0  0  0  0  0  0  0  4  0  0
   -0.8370    1.6825    0.2277 C   0  0  0  0  0  0  0  0  0  5  0  0
    0.0969    1.9385    1.2190 C   0  0  0  0  0  0  0  0  0  6  0  0
    1.0361    0.9666    1.5356 C   0  0  0  0  0  0  0  0  0  7  0  0
    1.0356   -0.2442    0.8667 C   0  0  0  0  0  0  0  0  0  8  0  0
   -0.1662   -1.3234   -2.8722 H   0  0  0  0  0  0  0  0  0  9  0  0
   -1.6592   -1.7881   -2.0539 H   0  0  0  0  0  0  0  0  0 10  0  0
   -0.4845   -3.0200   -2.4941 H   0  0  0  0  0  0  0  0  0 11  0  0
   -0.4446   -2.5111   -0.1118 H   0  0  0  0  0  0  0  0  0 12  0  0
    1.0950   -2.2940   -0.7850 H   0  0  0  0  0  0  0  0  0 13  0  0
   -1.5732    0.2915   -1.2138 H   0  0  0  0  0  0  0  0  0 14  0  0
   -1.5724    2.4345   -0.0305 H   0  0  0  0  0  0  0  0  0 15  0  0
    0.0962    2.8880    1.7389 H   0  0  0  0  0  0  0  0  0 16  0  0
    1.7739    1.1555    2.3056 H   0  0  0  0  0  0  0  0  0 17  0  0
    1.7744   -0.9970    1.1187 H   0  0  0  0  0  0  0  0  0 18  0  0
  1 10  1  0
  1 11  1  0
  1  9  1  0
  1  2  1  0
  2 12  1  0
  2 13  1  0
  2  3  1  0
  3  4  1  0
  3  8  1  0
  4  5  1  0
  4 14  1  0
  5  6  1  0
  5 15  1  0
  6  7  1  0
  6 16  1  0
  7 17  1  0
  7  8  1  0
  8 18  1  0
M  END
>  <rmg_smiles>  (1) 
CCC1[CH][CH][CH][CH][CH]1

>  <rmg_adjacency_list>  (1) 
1  C u0 p0 c0 {2,S} {3,S} {9,S} {10,S}
2  C u0 p0 c0 {1,S} {11,S} {12,S} {13,S}
3  C u0 p0 c0 {1,S} {4,S} {5,S}
4  C u0 p0 c0 {3,S} {6,S} {14,S}
5  C u0 p0 c0 {3,S} {8,S} {18,S}
6  C u0 p0 c0 {4,S} {7,S} {15,S}
7  C u0 p0 c0 {6,S} {8,S} {16,S}
8  C u0 p0 c0 {5,S} {7,S} {17,S}
9  H u0 p0 c0 {1,S}
10 H u0 p0 c0 {1,S}
11 H u0 p0 c0 {2,S}
12 H u0 p0 c0 {2,S}
13 H u0 p0 c0 {2,S}
14 H u0 p0 c0 {4,S}
15 H u0 p0 c0 {6,S}
16 H u0 p0 c0 {7,S}
17 H u0 p0 c0 {8,S}
18 H u0 p0 c0 {5,S}


>  <multiplicity>  (1) 
1

>  <reaction>  (1) 
rxn_1478

>  <type>  (1) 
r1h

>  <role_mapnums>  (1) 
{"r1h_a": 2, "r1h_h": 12}

>  <role_mapidx>  (1) 
{"r1h_a": 1, "r1h_h": 11}

>  <ordered_mapped_smiles>  (1) 
[C:1]([C:2]([CH:3]1[CH:4]([H:14])[CH:5]([H:15])[CH:6]([H:16])[CH:7]([H:17])[CH:8]1[H:18])([H:12])[H:13])([H:9])([H:10])[H:11]

>  <mol_properties>  (1) 
{"1": {"label": "donator", "atom_type": "Cs"}, "11": {"label": "d_hydrogen", "atom_type": "H0"}}

>  <level_of_theory>  (1) 
wb97xd/def2tzvp

>  <lot_method>  (1) 
wb97xd

>  <lot_basis>  (1) 
def2tzvp

>  <spin_multiplicity>  (1) 
1.0

>  <optical_isomers>  (1) 
1.0

>  <modes>  (1) 
IdealGasTranslation(mass=(106.078, 'amu')),         NonlinearRotor(             inertia = ([110.416, 341.874, 411.865

>  <frequency_value>  (1) 
unknown

>  <frequency_units>  (1) 
unknown

>  <frequency_list>  (1) 
unknown

>  <arkane_path>  (1) 
/home/calvin/Dropbox/PersonalFolders/Calvin/HAb_Converged/rxn_1478/output/Species/rxn_1478_CCc1ccccc1/arkane/output.py

>  <path_exists>  (1) 
True

>  <E0_value>  (1) 
-815817.9037561571

>  <E0_units>  (1) 
kJ/mol

>  <thermo_class>  (1) 
NASA

>  <Cp0_value>  (1) 
33.257888

>  <Cp0_units>  (1) 
J/(mol*K)

>  <CpInf_value>  (1) 
432.352544

>  <CpInf_units>  (1) 
J/(mol*K)

>  <Tmin_value>  (1) 
10.0

>  <Tmin_units>  (1) 
K

>  <Tmax_value>  (1) 
3000.0

>  <Tmax_units>  (1) 
K

>  <polynomials>  (1) 
[{"name": "polynomial1", "class": "NASAPolynomial", "Tmin_value": 10.0, "Tmin_units": "K", "Tmax_value": 423.43148894443397, "Tmax_units": "K", "coeffs": [3.931371462303749, 0.0043348780862909565, 0.0002107289734370774, -3.9367772518266606e-07, 2.393101206956295e-10, -98120227.55517174, 12.959878926049448]}, {"name": "polynomial2", "class": "NASAPolynomial", "Tmin_value": 423.43148894443397, "Tmin_units": "K", "Tmax_value": 3000.0, "Tmax_units": "K", "coeffs": [-3.83164284748443, 0.07763397217300208, -4.8807258520066935e-05, 1.474957590825765e-08, -1.715217704089625e-12, -98119569.81850499, 43.74441215248484]}]

>  <H298_value>  (1) 
-194980.06834128423

>  <H298_units>  (1) 
kcal/mol

>  <S298_value>  (1) 
85.45971865285561

>  <S298_units>  (1) 
cal/(mol*K)

>  <Cp_T_value_list>  (1) 
[30.814728682440222, 40.3659728871616, 48.72635207216872, 55.923455772183495, 67.34269064330329, 75.57232855555993, 87.23739723546237, 92.92255381484495, 96.0842397573879]

>  <Cp_T_units>  (1) 
cal/(mol*K)

>  <T_list>  (1) 
[300.0, 400.0, 500.0, 600.0, 800.0, 1000.0, 1500.0, 2000.0, 2400.0]

>  <T_units>  (1) 
K

>  <yaml_path>  (1) 
/home/calvin/Dropbox/PersonalFolders/Calvin/HAb_Converged/rxn_1478/output/Species/rxn_1478_CCc1ccccc1/rxn_1478_CCc1ccccc1.yml

>  <frequencies_cm1>  (1) 
[34.3349266, 135.74656580575999, 222.50405833863996, 311.72679860139993, 360.38625657892, 413.90067317767995, 501.90109005348, 566.8971061072799, 633.36952400488, 715.5124024027199, 770.2697433443999, 787.05265546648, 789.67584385872, 862.2324107498398, 927.82585452648, 978.1333889808, 979.96687406124, 993.1308849196799, 1016.5747728021599, 1052.53030793768, 1054.54920162176, 1082.5459007714, 1116.4276063402797, 1174.3094256025597, 1199.89581290488, 1226.84186330056, 1261.7192817408397, 1329.56509670244, 1349.48622111576, 1353.9360276031198, 1398.4615604179999, 1477.6173002016399, 1482.14951051284, 1484.5254874335599, 1494.4826161475598, 1529.46990635296, 1639.9047642691999, 1662.1469297206797, 3013.28809429856, 3020.8349111652396, 3058.19131130604, 3090.8506934879597, 3092.1760216547195, 3142.7239005952397, 3143.62347567216, 3158.5385677872, 3168.2416180443593, 3180.7601322827195]

>  <ZPE_kJmol>  (1) 
409.36782000073936

>  <E_elec_kJmol>  (1) 
-816227.2715761579

>  <E0_minus_Eelec_plus_ZPE_kJmol>  (1) 
0.0

>  <rxn>  (1) 
rxn_1478

>  <species_type>  (1) 
r1

>  <species_folder>  (1) 
rxn_1478_CCc1ccccc1

>  <frequencies_cm1_list>  (1) 
[34.3349266, 135.74656580575999, 222.50405833863996, 311.72679860139993, 360.38625657892, 413.90067317767995, 501.90109005348, 566.8971061072799, 633.36952400488, 715.5124024027199, 770.2697433443999, 787.05265546648, 789.67584385872, 862.2324107498398, 927.82585452648, 978.1333889808, 979.96687406124, 993.1308849196799, 1016.5747728021599, 1052.53030793768, 1054.54920162176, 1082.5459007714, 1116.4276063402797, 1174.3094256025597, 1199.89581290488, 1226.84186330056, 1261.7192817408397, 1329.56509670244, 1349.48622111576, 1353.9360276031198, 1398.4615604179999, 1477.6173002016399, 1482.14951051284, 1484.5254874335599, 1494.4826161475598, 1529.46990635296, 1639.9047642691999, 1662.1469297206797, 3013.28809429856, 3020.8349111652396, 3058.19131130604, 3090.8506934879597, 3092.1760216547195, 3142.7239005952397, 3143.62347567216, 3158.5385677872, 3168.2416180443593, 3180.7601322827195]

>  <E0_kJmol>  (1) 
-815818

>  <H298_kJmol>  (1) 
-815797

$$$$

     RDKit          3D

  5  4  0  0  0  0  0  0  0  0999 V2000
   -0.0241   -0.0276    0.0259 C   0  0  0  0  0  0  0  0  0  1  0  0
    0.1824   -1.0322   -0.3273 H   0  0  0  0  0  0  0  0  0  2  0  0
   -1.0358    0.3214   -0.1520 H   0  0  0  0  0  0  0  0  0  3  0  0
    0.3702    0.2049    1.0093 H   0  0  0  0  0  0  0  0  0  4  0  0
    0.5674    0.6145   -0.6180 H   0  0  0  0  0  0  0  0  0  5  0  0
  1  3  1  0
  1  5  1  0
  1  4  1  0
  1  2  1  0
M  END
>  <rmg_smiles>  (2) 
C

>  <rmg_adjacency_list>  (2) 
1 C u0 p0 c0 {2,S} {3,S} {4,S} {5,S}
2 H u0 p0 c0 {1,S}
3 H u0 p0 c0 {1,S}
4 H u0 p0 c0 {1,S}
5 H u0 p0 c0 {1,S}


>  <multiplicity>  (2) 
1

>  <reaction>  (2) 
rxn_1478

>  <type>  (2) 
r2h

>  <role_mapnums>  (2) 
{"r2h_a": 1, "r2h_h": 5}

>  <role_mapidx>  (2) 
{"r2h_a": 0, "r2h_h": 4}

>  <ordered_mapped_smiles>  (2) 
[C:1]([H:2])([H:3])([H:4])[H:5]

>  <mol_properties>  (2) 
{"0": {"label": "acceptor", "atom_type": "Cs"}, "4": {"label": "a_hydrogen", "atom_type": "H0"}}

>  <level_of_theory>  (2) 
wb97xd/def2tzvp

>  <lot_method>  (2) 
wb97xd

>  <lot_basis>  (2) 
def2tzvp

>  <spin_multiplicity>  (2) 
1.0

>  <optical_isomers>  (2) 
1.0

>  <modes>  (2) 
IdealGasTranslation(mass=(16.0313, 'amu')),         NonlinearRotor(             inertia = ([3.18679, 3.18679, 3.18679

>  <frequency_value>  (2) 
unknown

>  <frequency_units>  (2) 
unknown

>  <frequency_list>  (2) 
unknown

>  <arkane_path>  (2) 
/home/calvin/Dropbox/PersonalFolders/Calvin/HAb_Converged/rxn_1478/output/Species/rxn_1478_C/arkane/output.py

>  <path_exists>  (2) 
True

>  <E0_value>  (2) 
-106268.5262916272

>  <E0_units>  (2) 
kJ/mol

>  <thermo_class>  (2) 
NASA

>  <Cp0_value>  (2) 
33.257888

>  <Cp0_units>  (2) 
J/(mol*K)

>  <CpInf_value>  (2) 
108.088136

>  <CpInf_units>  (2) 
J/(mol*K)

>  <Tmin_value>  (2) 
10.0

>  <Tmin_units>  (2) 
K

>  <Tmax_value>  (2) 
3000.0

>  <Tmax_units>  (2) 
K

>  <polynomials>  (2) 
[{"name": "polynomial1", "class": "NASAPolynomial", "Tmin_value": 10.0, "Tmin_units": "K", "Tmax_value": 616.7450719812329, "Tmax_units": "K", "coeffs": [4.041418053522748, -0.0024776875649004, 1.128946584751057e-05, 3.7032261253985996e-09, -9.368375538491703e-12, -12781153.318302048, -0.426368943101556]}, {"name": "polynomial2", "class": "NASAPolynomial", "Tmin_value": 616.7450719812329, "Tmin_units": "K", "Tmax_value": 3000.0, "Tmax_units": "K", "coeffs": [0.6801216332639523, 0.011683812627442494, -4.574710383295543e-06, 7.693713113206577e-10, -3.875493547070518e-14, -12780593.426767267, 15.343217903005248]}]

>  <H298_value>  (2) 
-25396.41264990868

>  <H298_units>  (2) 
kcal/mol

>  <S298_value>  (2) 
44.46392088520576

>  <S298_units>  (2) 
cal/(mol*K)

>  <Cp_T_value_list>  (2) 
[8.621032333322617, 9.645569727013743, 10.934247122530735, 12.330156484905332, 14.859140234627963, 16.93068193838678, 20.494405478142234, 22.423234511430362, 23.29191503379037]

>  <Cp_T_units>  (2) 
cal/(mol*K)

>  <T_list>  (2) 
[300.0, 400.0, 500.0, 600.0, 800.0, 1000.0, 1500.0, 2000.0, 2400.0]

>  <T_units>  (2) 
K

>  <yaml_path>  (2) 
/home/calvin/Dropbox/PersonalFolders/Calvin/HAb_Converged/rxn_1478/output/Species/rxn_1478_C/rxn_1478_C.yml

>  <frequencies_cm1>  (2) 
[1326.5504901469599, 1326.5504901469599, 1326.5504901469599, 1542.24249904816, 1542.24249904816, 3008.8382878112, 3127.32125252248, 3127.32125252248, 3127.32125252248]

>  <ZPE_kJmol>  (2) 
116.36640738144024

>  <E_elec_kJmol>  (2) 
-106384.89269900863

>  <E0_minus_Eelec_plus_ZPE_kJmol>  (2) 
0.0

>  <rxn>  (2) 
rxn_1478

>  <species_type>  (2) 
p0

>  <species_folder>  (2) 
rxn_1478_C

>  <frequencies_cm1_list>  (2) 
[1326.5504901469599, 1326.5504901469599, 1326.5504901469599, 1542.24249904816, 1542.24249904816, 3008.8382878112, 3127.32125252248, 3127.32125252248, 3127.32125252248]

>  <E0_kJmol>  (2) 
-106269

>  <H298_kJmol>  (2) 
-106259

$$$$

     RDKit          3D

 22 21  0  0  0  0  0  0  0  0999 V2000
   -1.1565   -3.0121    0.7132 C   0  0  0  0  0  3  0  0  0  1  0  0
   -0.9500   -4.0168    0.3601 H   0  0  0  0  0  0  0  0  0  2  0  0
   -2.1682   -2.6632    0.5353 H   0  0  0  0  0  0  0  0  0  3  0  0
   -0.7623   -2.7797    1.6966 H   0  0  0  0  0  0  0  0  0  4  0  0
   -0.4259   -1.5381   -2.2668 C   0  0  0  0  0  0  0  0  0  5  0  0
    0.2633   -1.3888   -0.9300 C   0  0  0  0  0  0  0  0  0  6  0  0
    0.2655   -0.0579   -0.2768 C   0  0  0  0  0  0  0  0  0  7  0  0
   -0.6721    0.9286   -0.5823 C   0  0  0  0  0  0  0  0  0  8  0  0
   -0.6725    2.1437    0.0858 C   0  0  0  0  0  0  0  0  0  9  0  0
    0.2614    2.3998    1.0771 C   0  0  0  0  0  0  0  0  0 10  0  0
    1.2006    1.4278    1.3937 C   0  0  0  0  0  0  0  0  0 11  0  0
    1.2002    0.2170    0.7247 C   0  0  0  0  0  0  0  0  0 12  0  0
   -0.0016   -0.8621   -3.0141 H   0  0  0  0  0  0  0  0  0 13  0  0
   -1.4947   -1.3269   -2.1958 H   0  0  0  0  0  0  0  0  0 14  0  0
   -0.3200   -2.5588   -2.6360 H   0  0  0  0  0  0  0  0  0 15  0  0
   -0.3626   -2.1503   -0.1510 H   0  0  0  0  0  0  0  0  0 16  0  0
    1.2596   -1.8328   -0.9269 H   0  0  0  0  0  0  0  0  0 17  0  0
   -1.4087    0.7528   -1.3557 H   0  0  0  0  0  0  0  0  0 18  0  0
   -1.4079    2.8957   -0.1724 H   0  0  0  0  0  0  0  0  0 19  0  0
    0.2607    3.3493    1.5970 H   0  0  0  0  0  0  0  0  0 20  0  0
    1.9384    1.6167    2.1637 H   0  0  0  0  0  0  0  0  0 21  0  0
    1.9390   -0.5358    0.9768 H   0  0  0  0  0  0  0  0  0 22  0  0
  1  4  1  0
  1  2  1  0
  1  3  1  0
  5 14  1  0
  5 13  1  0
  5 15  1  0
  5  6  1  0
  6  7  1  0
  6 16  1  0
  6 17  1  0
  7 12  1  0
  7  8  1  0
  8  9  1  0
  8 18  1  0
  9 10  1  0
  9 19  1  0
 10 11  1  0
 10 20  1  0
 11 21  1  0
 11 12  1  0
 12 22  1  0
M  RAD  1   1   2
M  END
>  <rmg_smiles>  (3) 
CCC1[CH][CH][CH][CH][CH]1.[CH3]

>  <rmg_adjacency_list>  (3) 
multiplicity 2
1  C u0 p0 c0 {2,S} {3,S} {10,S} {11,S}
2  C u0 p0 c0 {1,S} {12,S} {13,S} {14,S}
3  C u0 p0 c0 {1,S} {4,S} {5,S}
4  C u0 p0 c0 {3,S} {6,S} {15,S}
5  C u0 p0 c0 {3,S} {8,S} {19,S}
6  C u0 p0 c0 {4,S} {7,S} {16,S}
7  C u0 p0 c0 {6,S} {8,S} {17,S}
8  C u0 p0 c0 {5,S} {7,S} {18,S}
9  C u1 p0 c0 {20,S} {21,S} {22,S}
10 H u0 p0 c0 {1,S}
11 H u0 p0 c0 {1,S}
12 H u0 p0 c0 {2,S}
13 H u0 p0 c0 {2,S}
14 H u0 p0 c0 {2,S}
15 H u0 p0 c0 {4,S}
16 H u0 p0 c0 {6,S}
17 H u0 p0 c0 {7,S}
18 H u0 p0 c0 {8,S}
19 H u0 p0 c0 {5,S}
20 H u0 p0 c0 {9,S}
21 H u0 p0 c0 {9,S}
22 H u0 p0 c0 {9,S}


>  <multiplicity>  (3) 
2

>  <reaction>  (3) 
rxn_1478

>  <type>  (3) 
ts

>  <role_mapnums>  (3) 
{"*2": 16, "*1": 6, "*3": 1, "*0": 7, "*4": 2}

>  <role_mapidx>  (3) 
{"*2": 15, "*1": 5, "*3": 0, "*0": 6, "*4": 1}

>  <ordered_mapped_smiles>  (3) 
[C:1]([H:2])([H:3])[H:4].[C:5]([C:6]([CH:7]1[CH:8]([H:18])[CH:9]([H:19])[CH:10]([H:20])[CH:11]([H:21])[CH:12]1[H:22])([H:16])[H:17])([H:13])([H:14])[H:15]

>  <mol_properties>  (3) 
{"0": {"label": "*3", "atom_type": "Cs"}, "1": {"label": "*4", "atom_type": "H0"}, "5": {"label": "*1", "atom_type": "Cs"}, "6": {"label": "*0", "atom_type": "Cs"}, "15": {"label": "*2", "atom_type": "H0"}}

>  <level_of_theory>  (3) 
wb97xd/def2tzvp

>  <lot_method>  (3) 
wb97xd

>  <lot_basis>  (3) 
def2tzvp

>  <spin_multiplicity>  (3) 
2.0

>  <optical_isomers>  (3) 
2.0

>  <modes>  (3) 
IdealGasTranslation(mass=(121.102, 'amu')),         NonlinearRotor(             inertia = ([198.497, 509.254, 575.675

>  <frequency_value>  (3) 
-1516.97

>  <frequency_units>  (3) 
cm^-1

>  <frequency_list>  (3) 
unknown

>  <arkane_path>  (3) 
/home/calvin/Dropbox/PersonalFolders/Calvin/HAb_Converged/rxn_1478/output/rxns/TS0/arkane/output.py

>  <path_exists>  (3) 
True

>  <E0_value>  (3) 
-920302.0

>  <E0_units>  (3) 
kJ/mol

>  <thermo_class>  (3) 
unknown

>  <Cp0_value>  (3) 
unknown

>  <Cp0_units>  (3) 
unknown

>  <CpInf_value>  (3) 
unknown

>  <CpInf_units>  (3) 
unknown

>  <Tmin_value>  (3) 
unknown

>  <Tmin_units>  (3) 
unknown

>  <Tmax_value>  (3) 
unknown

>  <Tmax_units>  (3) 
unknown

>  <polynomials>  (3) 
unknown

>  <H298_value>  (3) 
unknown

>  <H298_units>  (3) 
unknown

>  <S298_value>  (3) 
unknown

>  <S298_units>  (3) 
unknown

>  <Cp_T_value_list>  (3) 
unknown

>  <Cp_T_units>  (3) 
unknown

>  <T_list>  (3) 
unknown

>  <T_units>  (3) 
unknown

>  <yaml_path>  (3) 
unknown

>  <frequencies_cm1>  (3) 
unknown

>  <ZPE_kJmol>  (3) 
unknown

>  <E_elec_kJmol>  (3) 
unknown

>  <E0_minus_Eelec_plus_ZPE_kJmol>  (3) 
unknown

>  <rxn>  (3) 
unknown

>  <species_type>  (3) 
unknown

>  <species_folder>  (3) 
unknown

>  <frequencies_cm1_list>  (3) 
[]

>  <ts_imag_freq_cm1>  (3) 
-1535.3933

>  <ts_freq_out_path>  (3) 
/home/calvin/Dropbox/PersonalFolders/Calvin/HAb_Converged/rxn_1478/output/rxns/TS0/geometry/freq.out

>  <E0_kJmol>  (3) 
-920302

>  <H298_kJmol>  (3) 
unknown

$$$$

     RDKit          3D

 17 17  0  0  0  0  0  0  0  0999 V2000
    2.7069    0.2860   -0.1817 C   0  0  0  0  0  0  0  0  0  1  0  0
    1.6304   -0.7245    0.0085 C   0  0  0  0  0  0  0  0  0  2  0  0
    1.4786   -1.8800   -0.7837 C   0  0  0  0  0  0  0  0  0  3  0  0
    0.4231   -2.7891   -0.5312 C   0  0  0  0  0  3  0  0  0  4  0  0
    0.2582   -3.9235   -1.2940 C   0  0  0  0  0  0  0  0  0  5  0  0
    1.1348   -4.2030   -2.3401 C   0  0  0  0  0  0  0  0  0  6  0  0
    2.1804   -3.3260   -2.6093 C   0  0  0  0  0  0  0  0  0  7  0  0
    2.3549   -2.1866   -1.8513 C   0  0  0  0  0  0  0  0  0  8  0  0
    2.6698    0.7343   -1.1808 H   0  0  0  0  0  0  0  0  0  9  0  0
    3.7029   -0.1584   -0.0766 H   0  0  0  0  0  0  0  0  0 10  0  0
    2.6250    1.0917    0.5463 H   0  0  0  0  0  0  0  0  0 11  0  0
    0.9136   -0.5677    0.8059 H   0  0  0  0  0  0  0  0  0 12  0  0
   -0.2629   -2.5783    0.2811 H   0  0  0  0  0  0  0  0  0 13  0  0
   -0.5582   -4.6017   -1.0785 H   0  0  0  0  0  0  0  0  0 14  0  0
    1.0033   -5.0952   -2.9384 H   0  0  0  0  0  0  0  0  0 15  0  0
    2.8650   -3.5382   -3.4214 H   0  0  0  0  0  0  0  0  0 16  0  0
    3.1750   -1.5169   -2.0772 H   0  0  0  0  0  0  0  0  0 17  0  0
  1 10  1  0
  1 11  1  0
  1  9  1  0
  1  2  1  0
  2 12  1  0
  2  3  1  0
  3  4  1  0
  3  8  1  0
  4  5  1  0
  4 13  1  0
  5 14  1  0
  5  6  1  0
  6 15  1  0
  6  7  1  0
  7  8  1  0
  7 16  1  0
  8 17  1  0
M  RAD  1   4   2
M  END
>  <rmg_smiles>  (4) 
C[CH]C1[CH][CH][CH][CH][CH]1

>  <rmg_adjacency_list>  (4) 
multiplicity 2
1  C u0 p0 c0 {3,S} {9,S} {10,S} {11,S}
2  C u0 p0 c0 {3,S} {4,S} {5,S}
3  C u0 p0 c0 {1,S} {2,S} {12,S}
4  C u1 p0 c0 {2,S} {6,S} {13,S}
5  C u0 p0 c0 {2,S} {8,S} {17,S}
6  C u0 p0 c0 {4,S} {7,S} {14,S}
7  C u0 p0 c0 {6,S} {8,S} {15,S}
8  C u0 p0 c0 {5,S} {7,S} {16,S}
9  H u0 p0 c0 {1,S}
10 H u0 p0 c0 {1,S}
11 H u0 p0 c0 {1,S}
12 H u0 p0 c0 {3,S}
13 H u0 p0 c0 {4,S}
14 H u0 p0 c0 {6,S}
15 H u0 p0 c0 {7,S}
16 H u0 p0 c0 {8,S}
17 H u0 p0 c0 {5,S}


>  <multiplicity>  (4) 
2

>  <reaction>  (4) 
rxn_1478

>  <type>  (4) 
r1

>  <role_mapnums>  (4) 
{}

>  <role_mapidx>  (4) 
{}

>  <ordered_mapped_smiles>  (4) 
[C:1]([CH:2]([CH:3]1[C:4]([H:13])[CH:5]([H:14])[CH:6]([H:15])[CH:7]([H:16])[CH:8]1[H:17])[H:12])([H:9])([H:10])[H:11]

>  <level_of_theory>  (4) 
wb97xd/def2tzvp

>  <lot_method>  (4) 
wb97xd

>  <lot_basis>  (4) 
def2tzvp

>  <spin_multiplicity>  (4) 
2.0

>  <optical_isomers>  (4) 
1.0

>  <modes>  (4) 
IdealGasTranslation(mass=(105.07, 'amu')),         NonlinearRotor(             inertia = ([100.906, 335.03, 432.828

>  <frequency_value>  (4) 
unknown

>  <frequency_units>  (4) 
unknown

>  <frequency_list>  (4) 
unknown

>  <arkane_path>  (4) 
/home/calvin/Dropbox/PersonalFolders/Calvin/HAb_Converged/rxn_1478/output/Species/rxn_1478_C[CH]c1ccccc1/arkane/output.py

>  <path_exists>  (4) 
True

>  <E0_value>  (4) 
-814145.4390471868

>  <E0_units>  (4) 
kJ/mol

>  <thermo_class>  (4) 
NASA

>  <Cp0_value>  (4) 
33.257888

>  <Cp0_units>  (4) 
J/(mol*K)

>  <CpInf_value>  (4) 
407.409128

>  <CpInf_units>  (4) 
J/(mol*K)

>  <Tmin_value>  (4) 
10.0

>  <Tmin_units>  (4) 
K

>  <Tmax_value>  (4) 
3000.0

>  <Tmax_units>  (4) 
K

>  <polynomials>  (4) 
[{"name": "polynomial1", "class": "NASAPolynomial", "Tmin_value": 10.0, "Tmin_units": "K", "Tmax_value": 499.98694720289757, "Tmax_units": "K", "coeffs": [3.900006614701837, 0.006189524420280378, 0.0002070779502842504, -3.977395062079407e-07, 2.415319555108671e-10, -97919075.0755261, 12.718808184902038]}, {"name": "polynomial2", "class": "NASAPolynomial", "Tmin_value": 499.98694720289757, "Tmin_units": "K", "Tmax_value": 3000.0, "Tmax_units": "K", "coeffs": [-1.9708466093910588, 0.07180968244060904, -4.574544217766874e-05, 1.3979470719313715e-08, -1.6400410731104985e-12, -97918721.14468321, 34.641310298229065]}]

>  <H298_value>  (4) 
-194580.26959244045

>  <H298_units>  (4) 
kcal/mol

>  <S298_value>  (4) 
85.3392210607043

>  <S298_units>  (4) 
cal/(mol*K)

>  <Cp_T_value_list>  (4) 
[31.022919848328236, 40.21346465905352, 47.97626279209415, 54.55601218509858, 64.9529265855122, 72.39954330945012, 82.8554580422872, 87.95745225191347, 90.8515456281521]

>  <Cp_T_units>  (4) 
cal/(mol*K)

>  <T_list>  (4) 
[300.0, 400.0, 500.0, 600.0, 800.0, 1000.0, 1500.0, 2000.0, 2400.0]

>  <T_units>  (4) 
K

>  <yaml_path>  (4) 
/home/calvin/Dropbox/PersonalFolders/Calvin/HAb_Converged/rxn_1478/output/Species/rxn_1478_C[CH]c1ccccc1/rxn_1478_CCHc1ccccc1.yml

>  <frequencies_cm1>  (4) 
[105.45629355923998, 120.83147369072, 216.25510169744, 238.46979920763997, 411.38735655056, 430.68358529975995, 477.9078433454, 558.86273328288, 625.17721051812, 625.35575213644, 690.24189642512, 769.39763620876, 797.72395065376, 833.5833479948, 901.31929119128, 970.7101778498799, 980.6055036959999, 988.6055415938, 1000.11460899012, 1025.94134077864, 1044.8942202618398, 1074.80680831576, 1128.88431771076, 1167.6621838128, 1182.4262022508, 1237.72603503276, 1316.38048488804, 1342.4681621187199, 1389.5344795019998, 1422.2556645518, 1466.88420214648, 1475.4885347524398, 1484.7520979491198, 1503.6912434616797, 1594.2805138031197, 1610.7269436445201, 2982.0364441072397, 3025.80660853692, 3101.1374374973198, 3147.482721422, 3152.804635045, 3154.61751916948, 3165.4673559750795, 3173.5635316673593, 3183.0811733208798]

>  <ZPE_kJmol>  (4) 
372.6218456560276

>  <E_elec_kJmol>  (4) 
-814518.0608928428

>  <E0_minus_Eelec_plus_ZPE_kJmol>  (4) 
0.0

>  <rxn>  (4) 
rxn_1478

>  <species_type>  (4) 
p1

>  <species_folder>  (4) 
rxn_1478_C[CH]c1ccccc1

>  <frequencies_cm1_list>  (4) 
[105.45629355923998, 120.83147369072, 216.25510169744, 238.46979920763997, 411.38735655056, 430.68358529975995, 477.9078433454, 558.86273328288, 625.17721051812, 625.35575213644, 690.24189642512, 769.39763620876, 797.72395065376, 833.5833479948, 901.31929119128, 970.7101778498799, 980.6055036959999, 988.6055415938, 1000.11460899012, 1025.94134077864, 1044.8942202618398, 1074.80680831576, 1128.88431771076, 1167.6621838128, 1182.4262022508, 1237.72603503276, 1316.38048488804, 1342.4681621187199, 1389.5344795019998, 1422.2556645518, 1466.88420214648, 1475.4885347524398, 1484.7520979491198, 1503.6912434616797, 1594.2805138031197, 1610.7269436445201, 2982.0364441072397, 3025.80660853692, 3101.1374374973198, 3147.482721422, 3152.804635045, 3154.61751916948, 3165.4673559750795, 3173.5635316673593, 3183.0811733208798]

>  <E0_kJmol>  (4) 
-814145

>  <H298_kJmol>  (4) 
-814124

$$$$

     RDKit          3D

  4  3  0  0  0  0  0  0  0  0999 V2000
    0.0000    0.0000    0.0000 C   0  0  0  0  0  3  0  0  0  1  0  0
    1.0638   -0.1747    0.0540 H   0  0  0  0  0  0  0  0  0  2  0  0
   -0.6833   -0.8351   -0.0280 H   0  0  0  0  0  0  0  0  0  3  0  0
   -0.3805    1.0098   -0.0260 H   0  0  0  0  0  0  0  0  0  4  0  0
  1  3  1  0
  1  4  1  0
  1  2  1  0
M  RAD  1   1   2
M  END
>  <rmg_smiles>  (5) 
[CH3]

>  <rmg_adjacency_list>  (5) 
multiplicity 2
1 C u1 p0 c0 {2,S} {3,S} {4,S}
2 H u0 p0 c0 {1,S}
3 H u0 p0 c0 {1,S}
4 H u0 p0 c0 {1,S}


>  <multiplicity>  (5) 
2

>  <reaction>  (5) 
rxn_1478

>  <type>  (5) 
r2

>  <role_mapnums>  (5) 
{}

>  <role_mapidx>  (5) 
{}

>  <ordered_mapped_smiles>  (5) 
[C:1]([H:2])([H:3])[H:4]

>  <level_of_theory>  (5) 
wb97xd/def2tzvp

>  <lot_method>  (5) 
wb97xd

>  <lot_basis>  (5) 
def2tzvp

>  <spin_multiplicity>  (5) 
2.0

>  <optical_isomers>  (5) 
1.0

>  <modes>  (5) 
IdealGasTranslation(mass=(15.0235, 'amu')),         NonlinearRotor(             inertia = ([1.76141, 1.76141, 3.52282

>  <frequency_value>  (5) 
unknown

>  <frequency_units>  (5) 
unknown

>  <frequency_list>  (5) 
unknown

>  <arkane_path>  (5) 
/home/calvin/Dropbox/PersonalFolders/Calvin/HAb_Converged/rxn_1478/output/Species/rxn_1478_[CH3]/arkane/output.py

>  <path_exists>  (5) 
True

>  <E0_value>  (5) 
-104520.13119505512

>  <E0_units>  (5) 
kJ/mol

>  <thermo_class>  (5) 
NASA

>  <Cp0_value>  (5) 
33.257888

>  <Cp0_units>  (5) 
J/(mol*K)

>  <CpInf_value>  (5) 
83.14472

>  <CpInf_units>  (5) 
J/(mol*K)

>  <Tmin_value>  (5) 
10.0

>  <Tmin_units>  (5) 
K

>  <Tmax_value>  (5) 
3000.0

>  <Tmax_units>  (5) 
K

>  <polynomials>  (5) 
[{"name": "polynomial1", "class": "NASAPolynomial", "Tmin_value": 10.0, "Tmin_units": "K", "Tmax_value": 646.6324492241591, "Tmax_units": "K", "coeffs": [3.9912276112387675, 0.00042740368301640074, 9.381433273605796e-06, -1.0945082684452814e-08, 4.263528168254901e-12, -12570867.748335274, 0.20527592345157467]}, {"name": "polynomial2", "class": "NASAPolynomial", "Tmin_value": 646.6324492241591, "Tmin_units": "K", "Tmax_value": 3000.0, "Tmax_units": "K", "coeffs": [3.248894118152503, 0.005018715689480517, -1.2674928837949384e-06, 3.2135507413046696e-11, 2.0166627479970407e-14, -12570771.730638904, 3.4630760791298436]}]

>  <H298_value>  (5) 
-24978.383291331436

>  <H298_units>  (5) 
kcal/mol

>  <S298_value>  (5) 
46.49953999396709

>  <S298_units>  (5) 
cal/(mol*K)

>  <Cp_T_value_list>  (5) 
[9.345424908842972, 10.078871790314064, 10.82753893976347, 11.552428638050948, 12.871901292095098, 14.014613000976595, 16.167235553229037, 17.479675172941295, 18.096246242095066]

>  <Cp_T_units>  (5) 
cal/(mol*K)

>  <T_list>  (5) 
[300.0, 400.0, 500.0, 600.0, 800.0, 1000.0, 1500.0, 2000.0, 2400.0]

>  <T_units>  (5) 
K

>  <yaml_path>  (5) 
/home/calvin/Dropbox/PersonalFolders/Calvin/HAb_Converged/rxn_1478/output/Species/rxn_1478_[CH3]/rxn_1478_CH3.yml

>  <frequencies_cm1>  (5) 
[520.22220688724, 1393.4280601784399, 1393.43492716376, 3088.8592677451597, 3268.6163424668, 3268.6232094521197]

>  <ZPE_kJmol>  (5) 
77.35764153782172

>  <E_elec_kJmol>  (5) 
-104597.48883659294

>  <E0_minus_Eelec_plus_ZPE_kJmol>  (5) 
0.0

>  <rxn>  (5) 
rxn_1478

>  <species_type>  (5) 
r0

>  <species_folder>  (5) 
rxn_1478_[CH3]

>  <frequencies_cm1_list>  (5) 
[520.22220688724, 1393.4280601784399, 1393.43492716376, 3088.8592677451597, 3268.6163424668, 3268.6232094521197]

>  <E0_kJmol>  (5) 
-104520

>  <H298_kJmol>  (5) 
-104510

$$$$
