
     RDKit          3D

 16 15  0  0  0  0  0  0  0  0999 V2000
    0.2855   -1.5299   -1.6835 C   0  0  0  0  0  0  0  0  0  1  0  0
    0.8017   -0.4152   -1.1679 C   0  0  0  0  0  0  0  0  0  2  0  0
    0.2136    0.4604   -0.1366 C   0  0  0  0  0  0  0  0  0  3  0  0
    1.2251    1.0359    0.8321 C   0  0  0  0  0  0  0  0  0  4  0  0
   -1.0967    0.0754    0.4081 C   0  0  0  0  0  0  0  0  0  5  0  0
   -1.5220    0.2646    1.6556 C   0  0  0  0  0  0  0  0  0  6  0  0
    0.8069   -2.0685   -2.4642 H   0  0  0  0  0  0  0  0  0  7  0  0
   -0.6506   -1.9530   -1.3408 H   0  0  0  0  0  0  0  0  0  8  0  0
    1.7591   -0.0705   -1.5509 H   0  0  0  0  0  0  0  0  0  9  0  0
   -0.0248    1.3431   -0.7300 H   0  0  0  0  0  0  0  0  0 10  0  0
    2.0965    1.4088    0.2915 H   0  0  0  0  0  0  0  0  0 11  0  0
    0.8035    1.8664    1.4005 H   0  0  0  0  0  0  0  0  0 12  0  0
    1.5645    0.2784    1.5443 H   0  0  0  0  0  0  0  0  0 13  0  0
   -1.7873   -0.3652   -0.3053 H   0  0  0  0  0  0  0  0  0 14  0  0
   -0.8907    0.6937    2.4240 H   0  0  0  0  0  0  0  0  0 15  0  0
   -2.5242   -0.0191    1.9498 H   0  0  0  0  0  0  0  0  0 16  0  0
  1  8  1  0
  1  7  1  0
  1  2  1  0
  2  9  1  0
  2  3  1  0
  3  4  1  0
  3  5  1  0
  3 10  1  0
  4 13  1  0
  4 12  1  0
  4 11  1  0
  5 14  1  0
  5  6  1  0
  6 15  1  0
  6 16  1  0
M  END
>  <rmg_smiles>  (1) 
[CH2][CH]C(C)[CH][CH2]

>  <rmg_adjacency_list>  (1) 
1  C u0 p0 c0 {2,S} {3,S} {4,S} {7,S}
2  C u0 p0 c0 {1,S} {8,S} {9,S} {10,S}
3  C u0 p0 c0 {1,S} {5,S} {11,S}
4  C u0 p0 c0 {1,S} {6,S} {12,S}
5  C u0 p0 c0 {3,S} {13,S} {14,S}
6  C u0 p0 c0 {4,S} {15,S} {16,S}
7  H u0 p0 c0 {1,S}
8  H u0 p0 c0 {2,S}
9  H u0 p0 c0 {2,S}
10 H u0 p0 c0 {2,S}
11 H u0 p0 c0 {3,S}
12 H u0 p0 c0 {4,S}
13 H u0 p0 c0 {5,S}
14 H u0 p0 c0 {5,S}
15 H u0 p0 c0 {6,S}
16 H u0 p0 c0 {6,S}


>  <multiplicity>  (1) 
1

>  <reaction>  (1) 
rxn_1185

>  <type>  (1) 
r1h

>  <role_mapnums>  (1) 
{"r1h_a": 3, "r1h_h": 10}

>  <role_mapidx>  (1) 
{"r1h_a": 2, "r1h_h": 9}

>  <ordered_mapped_smiles>  (1) 
[CH:1]([CH:2]([C:3]([C:4]([H:11])([H:12])[H:13])([CH:5]([CH:6]([H:15])[H:16])[H:14])[H:10])[H:9])([H:7])[H:8]

>  <mol_properties>  (1) 
{"2": {"label": "donator", "atom_type": "Cs"}, "9": {"label": "d_hydrogen", "atom_type": "H0"}}

>  <level_of_theory>  (1) 
wb97xd/def2tzvp

>  <lot_method>  (1) 
wb97xd

>  <lot_basis>  (1) 
def2tzvp

>  <spin_multiplicity>  (1) 
1.0

>  <optical_isomers>  (1) 
2.0

>  <modes>  (1) 
IdealGasTranslation(mass=(82.0782, 'amu')),         NonlinearRotor(             inertia = ([81.8176, 215.752, 270.221

>  <frequency_value>  (1) 
unknown

>  <frequency_units>  (1) 
unknown

>  <frequency_list>  (1) 
unknown

>  <arkane_path>  (1) 
/home/calvin/Dropbox/PersonalFolders/Calvin/HAb_Converged/rxn_1185/output/Species/rxn_1185_C=CC[C]C=C/arkane/output.py

>  <path_exists>  (1) 
True

>  <E0_value>  (1) 
-615627.5937373543

>  <E0_units>  (1) 
kJ/mol

>  <thermo_class>  (1) 
NASA

>  <Cp0_value>  (1) 
33.257888

>  <Cp0_units>  (1) 
J/(mol*K)

>  <CpInf_value>  (1) 
382.465712

>  <CpInf_units>  (1) 
J/(mol*K)

>  <Tmin_value>  (1) 
10.0

>  <Tmin_units>  (1) 
K

>  <Tmax_value>  (1) 
3000.0

>  <Tmax_units>  (1) 
K

>  <polynomials>  (1) 
[{"name": "polynomial1", "class": "NASAPolynomial", "Tmin_value": 10.0, "Tmin_units": "K", "Tmax_value": 757.01421466449, "Tmax_units": "K", "coeffs": [3.7333043859306807, 0.024971619873153182, 5.9953729741974984e-05, -9.768956274227311e-08, 4.2619255015878605e-11, -74042895.04148921, 11.39126299815016]}, {"name": "polynomial2", "class": "NASAPolynomial", "Tmin_value": 757.01421466449, "Tmin_units": "K", "Tmax_value": 3000.0, "Tmax_units": "K", "coeffs": [0.44469393851227684, 0.05690289093011388, -3.2156427053129826e-05, 8.824948176810319e-09, -9.439814340659815e-13, -74042814.17505449, 23.586950166217814]}]

>  <H298_value>  (1) 
-147133.40013016394

>  <H298_units>  (1) 
kcal/mol

>  <S298_value>  (1) 
83.43513409825523

>  <S298_units>  (1) 
cal/(mol*K)

>  <Cp_T_value_list>  (1) 
[28.473139475044146, 36.07469361244095, 43.043001816355165, 49.12797529668614, 58.65957774455763, 65.72114092256321, 76.41278682550626, 81.71522311412052, 84.39200509242544]

>  <Cp_T_units>  (1) 
cal/(mol*K)

>  <T_list>  (1) 
[300.0, 400.0, 500.0, 600.0, 800.0, 1000.0, 1500.0, 2000.0, 2400.0]

>  <T_units>  (1) 
K

>  <yaml_path>  (1) 
/home/calvin/Dropbox/PersonalFolders/Calvin/HAb_Converged/rxn_1185/output/Species/rxn_1185_C=CC[C]C=C/rxn_1185_C=CCCC=C.yml

>  <frequencies_cm1>  (1) 
[88.1720915088, 106.67861694619998, 273.49142433963993, 286.5592974036, 313.75942625612, 326.27794049448, 407.06115579895993, 569.8224418536, 651.92411833952, 700.3775667574399, 828.2270994451999, 911.8395127015199, 955.1839240413599, 957.3264234611999, 986.9918000435998, 1013.1206791861999, 1033.24781315912, 1040.35514296532, 1086.5012843157199, 1158.117074218, 1191.5112238291601, 1286.63957146712, 1315.0757576772398, 1326.50928823504, 1345.4965026448397, 1396.33966195412, 1439.56733454352, 1445.27379934444, 1485.5280672902798, 1492.32638275708, 1705.6973506201198, 1716.9454725742798, 3001.05112645832, 3015.16964827624, 3087.0944525179198, 3099.55803087372, 3107.7297434045195, 3116.0456626270397, 3118.744387857799, 3130.445730843079, 3201.84864420044, 3208.5027529755193]

>  <ZPE_kJmol>  (1) 
370.4126142688373

>  <E_elec_kJmol>  (1) 
-615998.0063516231

>  <E0_minus_Eelec_plus_ZPE_kJmol>  (1) 
0.0

>  <rxn>  (1) 
rxn_1185

>  <species_type>  (1) 
r0

>  <species_folder>  (1) 
rxn_1185_C=CC[C]C=C

>  <frequencies_cm1_list>  (1) 
[88.1720915088, 106.67861694619998, 273.49142433963993, 286.5592974036, 313.75942625612, 326.27794049448, 407.06115579895993, 569.8224418536, 651.92411833952, 700.3775667574399, 828.2270994451999, 911.8395127015199, 955.1839240413599, 957.3264234611999, 986.9918000435998, 1013.1206791861999, 1033.24781315912, 1040.35514296532, 1086.5012843157199, 1158.117074218, 1191.5112238291601, 1286.63957146712, 1315.0757576772398, 1326.50928823504, 1345.4965026448397, 1396.33966195412, 1439.56733454352, 1445.27379934444, 1485.5280672902798, 1492.32638275708, 1705.6973506201198, 1716.9454725742798, 3001.05112645832, 3015.16964827624, 3087.0944525179198, 3099.55803087372, 3107.7297434045195, 3116.0456626270397, 3118.744387857799, 3130.445730843079, 3201.84864420044, 3208.5027529755193]

>  <E0_kJmol>  (1) 
-615628

>  <H298_kJmol>  (1) 
-615606

$$$$

     RDKit          3D

 21 21  0  0  0  0  0  0  0  0999 V2000
   -1.2300   -1.2725    1.3243 H   0  0  0  0  0  0  0  0  0  1  0  0
   -2.5380   -0.9794   -0.1601 C   0  0  0  0  0  0  0  0  0  2  0  0
   -1.4705   -0.3895    0.7322 C   0  0  0  0  0  0  0  0  0  3  0  0
   -2.0041    0.5543    1.7818 C   0  0  0  0  0  0  0  0  0  4  0  0
   -0.1663   -0.0826    0.1190 C   0  0  0  0  0  0  0  0  0  5  0  0
    0.7248    0.8326    0.6965 C   0  0  0  0  0  0  0  0  0  6  0  0
    1.9765    1.0627    0.1528 C   0  0  0  0  0  0  0  0  0  7  0  0
    2.3848    0.3854   -0.9864 C   0  0  0  0  0  0  0  0  0  8  0  0
    1.5178   -0.5218   -1.5772 C   0  0  0  0  0  0  0  0  0  9  0  0
    0.2653   -0.7511   -1.0358 C   0  0  0  0  0  0  0  0  0 10  0  0
   -2.2233   -1.9218   -0.6112 H   0  0  0  0  0  0  0  0  0 11  0  0
   -3.4400   -1.1822    0.4185 H   0  0  0  0  0  0  0  0  0 12  0  0
   -2.8037   -0.2919   -0.9699 H   0  0  0  0  0  0  0  0  0 13  0  0
   -2.2959    1.5137    1.3398 H   0  0  0  0  0  0  0  0  0 14  0  0
   -2.8847    0.1222    2.2587 H   0  0  0  0  0  0  0  0  0 15  0  0
   -1.2787    0.7600    2.5687 H   0  0  0  0  0  0  0  0  0 16  0  0
    0.4374    1.3807    1.5829 H   0  0  0  0  0  0  0  0  0 17  0  0
    2.6379    1.7799    0.6232 H   0  0  0  0  0  0  0  0  0 18  0  0
    3.3640    0.5656   -1.4110 H   0  0  0  0  0  0  0  0  0 19  0  0
    1.8184   -1.0564   -2.4699 H   0  0  0  0  0  0  0  0  0 20  0  0
   -0.3852   -1.4679   -1.5174 H   0  0  0  0  0  0  0  0  0 21  0  0
  1  3  1  0
  2 12  1  0
  2 13  1  0
  2 11  1  0
  2  3  1  0
  3  4  1  0
  3  5  1  0
  4 14  1  0
  4 16  1  0
  4 15  1  0
  5 10  1  0
  5  6  1  0
  6  7  1  0
  6 17  1  0
  7 18  1  0
  7  8  1  0
  8 19  1  0
  8  9  1  0
  9 20  1  0
  9 10  1  0
 10 21  1  0
M  END
>  <rmg_smiles>  (2) 
CC(C)C1[CH][CH][CH][CH][CH]1

>  <rmg_adjacency_list>  (2) 
1  C u0 p0 c0 {2,S} {3,S} {4,S} {10,S}
2  C u0 p0 c0 {1,S} {11,S} {12,S} {13,S}
3  C u0 p0 c0 {1,S} {14,S} {15,S} {16,S}
4  C u0 p0 c0 {1,S} {5,S} {6,S}
5  C u0 p0 c0 {4,S} {7,S} {17,S}
6  C u0 p0 c0 {4,S} {9,S} {21,S}
7  C u0 p0 c0 {5,S} {8,S} {18,S}
8  C u0 p0 c0 {7,S} {9,S} {19,S}
9  C u0 p0 c0 {6,S} {8,S} {20,S}
10 H u0 p0 c0 {1,S}
11 H u0 p0 c0 {2,S}
12 H u0 p0 c0 {2,S}
13 H u0 p0 c0 {2,S}
14 H u0 p0 c0 {3,S}
15 H u0 p0 c0 {3,S}
16 H u0 p0 c0 {3,S}
17 H u0 p0 c0 {5,S}
18 H u0 p0 c0 {7,S}
19 H u0 p0 c0 {8,S}
20 H u0 p0 c0 {9,S}
21 H u0 p0 c0 {6,S}


>  <multiplicity>  (2) 
1

>  <reaction>  (2) 
rxn_1185

>  <type>  (2) 
r2h

>  <role_mapnums>  (2) 
{"r2h_a": 3, "r2h_h": 1}

>  <role_mapidx>  (2) 
{"r2h_a": 2, "r2h_h": 0}

>  <ordered_mapped_smiles>  (2) 
[H:1][C:3]([C:2]([H:11])([H:12])[H:13])([C:4]([H:14])([H:15])[H:16])[CH:5]1[CH:6]([H:17])[CH:7]([H:18])[CH:8]([H:19])[CH:9]([H:20])[CH:10]1[H:21]

>  <mol_properties>  (2) 
{"0": {"label": "a_hydrogen", "atom_type": "H0"}, "2": {"label": "acceptor", "atom_type": "Cs"}}

>  <level_of_theory>  (2) 
wb97xd/def2tzvp

>  <lot_method>  (2) 
wb97xd

>  <lot_basis>  (2) 
def2tzvp

>  <spin_multiplicity>  (2) 
1.0

>  <optical_isomers>  (2) 
1.0

>  <modes>  (2) 
IdealGasTranslation(mass=(120.094, 'amu')),         NonlinearRotor(             inertia = ([149.32, 463.91, 504.647

>  <frequency_value>  (2) 
unknown

>  <frequency_units>  (2) 
unknown

>  <frequency_list>  (2) 
unknown

>  <arkane_path>  (2) 
/home/calvin/Dropbox/PersonalFolders/Calvin/HAb_Converged/rxn_1185/output/Species/rxn_1185_CC[C]c1ccccc1/arkane/output.py

>  <path_exists>  (2) 
True

>  <E0_value>  (2) 
-918971.9705563578

>  <E0_units>  (2) 
kJ/mol

>  <thermo_class>  (2) 
NASA

>  <Cp0_value>  (2) 
33.257888

>  <Cp0_units>  (2) 
J/(mol*K)

>  <CpInf_value>  (2) 
507.182792

>  <CpInf_units>  (2) 
J/(mol*K)

>  <Tmin_value>  (2) 
10.0

>  <Tmin_units>  (2) 
K

>  <Tmax_value>  (2) 
3000.0

>  <Tmax_units>  (2) 
K

>  <polynomials>  (2) 
[{"name": "polynomial1", "class": "NASAPolynomial", "Tmin_value": 10.0, "Tmin_units": "K", "Tmax_value": 361.89922232211296, "Tmax_units": "K", "coeffs": [3.904348622062279, 0.0066165546790882615, 0.0002808737755672962, -5.999598061578041e-07, 4.2351735797772944e-10, -110526797.72652088, 13.495734278594782]}, {"name": "polynomial2", "class": "NASAPolynomial", "Tmin_value": 361.89922232211296, "Tmin_units": "K", "Tmax_value": 3000.0, "Tmax_units": "K", "coeffs": [-3.390813709941935, 0.08724915524894813, -5.3334839935951765e-05, 1.570183761902888e-08, -1.7850302751301086e-12, -110526269.70789742, 41.275892626906796]}]

>  <H298_value>  (2) 
-219633.7064411244

>  <H298_units>  (2) 
kcal/mol

>  <S298_value>  (2) 
90.86478001259816

>  <S298_units>  (2) 
cal/(mol*K)

>  <Cp_T_value_list>  (2) 
[36.563666942497676, 47.56278372816195, 57.13460978558492, 65.41564668608144, 78.65841331539274, 88.31207084387951, 102.21497799600469, 108.94333746029595, 112.55073339579498]

>  <Cp_T_units>  (2) 
cal/(mol*K)

>  <T_list>  (2) 
[300.0, 400.0, 500.0, 600.0, 800.0, 1000.0, 1500.0, 2000.0, 2400.0]

>  <T_units>  (2) 
K

>  <yaml_path>  (2) 
/home/calvin/Dropbox/PersonalFolders/Calvin/HAb_Converged/rxn_1185/output/Species/rxn_1185_CC[C]c1ccccc1/rxn_1185_CCCc1ccccc1.yml

>  <frequencies_cm1>  (2) 
[40.364139710959996, 128.71477283808, 218.52120685304, 233.34702815891998, 266.85791652052, 308.13536527904, 321.59465650623997, 414.80711523991994, 466.94813477468, 550.3133365594799, 568.586384496, 632.73089437012, 716.65918895116, 754.681686668, 783.96251207248, 862.0195342049199, 904.8283206898, 929.47393100328, 933.9718063878798, 965.95822400844, 981.62868450868, 994.4218781598398, 1016.0460149325199, 1049.9277205014, 1069.59476645788, 1107.56919527748, 1128.8637167548, 1168.97377800892, 1175.1197298703198, 1202.8829515190798, 1234.84190119836, 1303.2851438828, 1340.7170808621202, 1342.0355420435599, 1378.7945144615198, 1391.1344870815599, 1410.5131196546, 1472.453327241, 1477.58983226036, 1484.7452309638, 1489.7306623061197, 1494.12553291092, 1530.39694937116, 1639.69188772428, 1662.05765891152, 3009.3533117101997, 3011.8528943666793, 3016.5430453402396, 3079.47209881272, 3084.9519530980792, 3090.83695951732, 3093.05499577568, 3143.16338765572, 3146.4320726680403, 3159.08105962748, 3167.4725156885197, 3180.6639944882395]

>  <ZPE_kJmol>  (2) 
482.8876988097695

>  <E_elec_kJmol>  (2) 
-919454.8582551676

>  <E0_minus_Eelec_plus_ZPE_kJmol>  (2) 
0.0

>  <rxn>  (2) 
rxn_1185

>  <species_type>  (2) 
p0

>  <species_folder>  (2) 
rxn_1185_CC[C]c1ccccc1

>  <frequencies_cm1_list>  (2) 
[40.364139710959996, 128.71477283808, 218.52120685304, 233.34702815891998, 266.85791652052, 308.13536527904, 321.59465650623997, 414.80711523991994, 466.94813477468, 550.3133365594799, 568.586384496, 632.73089437012, 716.65918895116, 754.681686668, 783.96251207248, 862.0195342049199, 904.8283206898, 929.47393100328, 933.9718063878798, 965.95822400844, 981.62868450868, 994.4218781598398, 1016.0460149325199, 1049.9277205014, 1069.59476645788, 1107.56919527748, 1128.8637167548, 1168.97377800892, 1175.1197298703198, 1202.8829515190798, 1234.84190119836, 1303.2851438828, 1340.7170808621202, 1342.0355420435599, 1378.7945144615198, 1391.1344870815599, 1410.5131196546, 1472.453327241, 1477.58983226036, 1484.7452309638, 1489.7306623061197, 1494.12553291092, 1530.39694937116, 1639.69188772428, 1662.05765891152, 3009.3533117101997, 3011.8528943666793, 3016.5430453402396, 3079.47209881272, 3084.9519530980792, 3090.83695951732, 3093.05499577568, 3143.16338765572, 3146.4320726680403, 3159.08105962748, 3167.4725156885197, 3180.6639944882395]

>  <E0_kJmol>  (2) 
-918972

>  <H298_kJmol>  (2) 
-918947

$$$$

     RDKit          3D

 36 35  0  0  0  0  0  0  0  0999 V2000
   -0.3524   -3.3755   -0.2658 C   0  0  0  0  0  0  0  0  0  1  0  0
    0.1638   -2.2608    0.2497 C   0  0  0  0  0  0  0  0  0  2  0  0
   -0.4243   -1.3851    1.2811 C   0  0  0  0  0  0  0  0  0  3  0  0
    0.5872   -0.8097    2.2497 C   0  0  0  0  0  0  0  0  0  4  0  0
   -1.7346   -1.7702    1.8258 C   0  0  0  0  0  0  0  0  0  5  0  0
   -2.1599   -1.5810    3.0732 C   0  0  0  0  0  0  0  0  0  6  0  0
    0.1690   -3.9141   -1.0465 H   0  0  0  0  0  0  0  0  0  7  0  0
   -1.2885   -3.7986    0.0768 H   0  0  0  0  0  0  0  0  0  8  0  0
    1.1212   -1.9161   -0.1333 H   0  0  0  0  0  0  0  0  0  9  0  0
   -0.7117   -0.3208    0.5654 H   0  0  0  0  0  0  0  0  0 10  0  0
    1.4586   -0.4367    1.7091 H   0  0  0  0  0  0  0  0  0 11  0  0
    0.1656    0.0208    2.8181 H   0  0  0  0  0  0  0  0  0 12  0  0
    0.9266   -1.5672    2.9619 H   0  0  0  0  0  0  0  0  0 13  0  0
   -2.4252   -2.2107    1.1124 H   0  0  0  0  0  0  0  0  0 14  0  0
   -1.5286   -1.1518    3.8416 H   0  0  0  0  0  0  0  0  0 15  0  0
   -3.1621   -1.8646    3.3675 H   0  0  0  0  0  0  0  0  0 16  0  0
   -2.0862    0.2166   -1.0827 C   0  0  0  0  0  0  0  0  0 17  0  0
   -1.0187    0.8064   -0.1904 C   0  0  0  0  0  3  0  0  0 18  0  0
   -1.5523    1.7502    0.8592 C   0  0  0  0  0  0  0  0  0 19  0  0
    0.2855    1.1133   -0.8036 C   0  0  0  0  0  0  0  0  0 20  0  0
    1.1766    2.0285   -0.2262 C   0  0  0  0  0  0  0  0  0 21  0  0
    2.4283    2.2587   -0.7698 C   0  0  0  0  0  0  0  0  0 22  0  0
    2.8366    1.5813   -1.9090 C   0  0  0  0  0  0  0  0  0 23  0  0
    1.9696    0.6742   -2.4998 C   0  0  0  0  0  0  0  0  0 24  0  0
    0.7171    0.4449   -1.9585 C   0  0  0  0  0  0  0  0  0 25  0  0
   -1.7715   -0.7259   -1.5338 H   0  0  0  0  0  0  0  0  0 26  0  0
   -2.9882    0.0138   -0.5042 H   0  0  0  0  0  0  0  0  0 27  0  0
   -2.3519    0.9040   -1.8925 H   0  0  0  0  0  0  0  0  0 28  0  0
   -1.8441    2.7097    0.4172 H   0  0  0  0  0  0  0  0  0 29  0  0
   -2.4329    1.3181    1.3361 H   0  0  0  0  0  0  0  0  0 30  0  0
   -0.8269    1.9559    1.6461 H   0  0  0  0  0  0  0  0  0 31  0  0
    0.8892    2.5767    0.6603 H   0  0  0  0  0  0  0  0  0 32  0  0
    3.0897    2.9758   -0.2995 H   0  0  0  0  0  0  0  0  0 33  0  0
    3.8158    1.7616   -2.3336 H   0  0  0  0  0  0  0  0  0 34  0  0
    2.2702    0.1396   -3.3925 H   0  0  0  0  0  0  0  0  0 35  0  0
    0.0666   -0.2719   -2.4401 H   0  0  0  0  0  0  0  0  0 36  0  0
  1  7  1  0
  1  8  1  0
  1  2  1  0
  2  3  1  0
  2  9  1  0
  3  4  1  0
  3  5  1  0
  3 10  1  0
  4 11  1  0
  4 12  1  0
  4 13  1  0
  5 14  1  0
  5  6  1  0
  6 16  1  0
  6 15  1  0
 17 18  1  0
 17 27  1  0
 17 26  1  0
 17 28  1  0
 18 19  1  0
 18 20  1  0
 19 31  1  0
 19 29  1  0
 19 30  1  0
 20 21  1  0
 20 25  1  0
 21 32  1  0
 21 22  1  0
 22 33  1  0
 22 23  1  0
 23 24  1  0
 23 34  1  0
 24 25  1  0
 24 35  1  0
 25 36  1  0
M  RAD  1  18   2
M  END
>  <rmg_smiles>  (3) 
C[C](C)C1[CH][CH][CH][CH][CH]1.[CH2][CH]C(C)[CH][CH2]

>  <rmg_adjacency_list>  (3) 
multiplicity 2
1  C u0 p0 c0 {2,S} {7,S} {8,S} {16,S}
2  C u0 p0 c0 {1,S} {17,S} {18,S} {19,S}
3  C u0 p0 c0 {5,S} {20,S} {21,S} {22,S}
4  C u0 p0 c0 {5,S} {23,S} {24,S} {25,S}
5  C u1 p0 c0 {3,S} {4,S} {6,S}
6  C u0 p0 c0 {5,S} {9,S} {10,S}
7  C u0 p0 c0 {1,S} {14,S} {26,S}
8  C u0 p0 c0 {1,S} {15,S} {27,S}
9  C u0 p0 c0 {6,S} {11,S} {28,S}
10 C u0 p0 c0 {6,S} {13,S} {32,S}
11 C u0 p0 c0 {9,S} {12,S} {29,S}
12 C u0 p0 c0 {11,S} {13,S} {30,S}
13 C u0 p0 c0 {10,S} {12,S} {31,S}
14 C u0 p0 c0 {7,S} {33,S} {34,S}
15 C u0 p0 c0 {8,S} {35,S} {36,S}
16 H u0 p0 c0 {1,S}
17 H u0 p0 c0 {2,S}
18 H u0 p0 c0 {2,S}
19 H u0 p0 c0 {2,S}
20 H u0 p0 c0 {3,S}
21 H u0 p0 c0 {3,S}
22 H u0 p0 c0 {3,S}
23 H u0 p0 c0 {4,S}
24 H u0 p0 c0 {4,S}
25 H u0 p0 c0 {4,S}
26 H u0 p0 c0 {7,S}
27 H u0 p0 c0 {8,S}
28 H u0 p0 c0 {9,S}
29 H u0 p0 c0 {11,S}
30 H u0 p0 c0 {12,S}
31 H u0 p0 c0 {13,S}
32 H u0 p0 c0 {10,S}
33 H u0 p0 c0 {14,S}
34 H u0 p0 c0 {14,S}
35 H u0 p0 c0 {15,S}
36 H u0 p0 c0 {15,S}


>  <multiplicity>  (3) 
2

>  <reaction>  (3) 
rxn_1185

>  <type>  (3) 
ts

>  <role_mapnums>  (3) 
{"*2": 10, "*1": 3, "*3": 18, "*0": 2, "*4": 20}

>  <role_mapidx>  (3) 
{"*2": 9, "*1": 2, "*3": 17, "*0": 1, "*4": 19}

>  <ordered_mapped_smiles>  (3) 
[CH:1]([CH:2]([C:3]([C:4]([H:11])([H:12])[H:13])([CH:5]([CH:6]([H:15])[H:16])[H:14])[H:10])[H:9])([H:7])[H:8].[C:17]([C:18]([C:19]([H:29])([H:30])[H:31])[CH:20]1[CH:21]([H:32])[CH:22]([H:33])[CH:23]([H:34])[CH:24]([H:35])[CH:25]1[H:36])([H:26])([H:27])[H:28]

>  <mol_properties>  (3) 
{"1": {"label": "*0", "atom_type": "Cs"}, "2": {"label": "*1", "atom_type": "Cs"}, "9": {"label": "*2", "atom_type": "H0"}, "17": {"label": "*3", "atom_type": "Cs"}, "19": {"label": "*4", "atom_type": "Cs"}}

>  <level_of_theory>  (3) 
wb97xd/def2tzvp

>  <lot_method>  (3) 
wb97xd

>  <lot_basis>  (3) 
def2tzvp

>  <spin_multiplicity>  (3) 
2.0

>  <optical_isomers>  (3) 
2.0

>  <modes>  (3) 
IdealGasTranslation(mass=(201.164, 'amu')),         NonlinearRotor(             inertia = ([570.83, 1277.05, 1393.46

>  <frequency_value>  (3) 
-1687.8

>  <frequency_units>  (3) 
cm^-1

>  <frequency_list>  (3) 
unknown

>  <arkane_path>  (3) 
/home/calvin/Dropbox/PersonalFolders/Calvin/HAb_Converged/rxn_1185/output/rxns/TS0/arkane/output.py

>  <path_exists>  (3) 
True

>  <E0_value>  (3) 
-1532890.0

>  <E0_units>  (3) 
kJ/mol

>  <thermo_class>  (3) 
unknown

>  <Cp0_value>  (3) 
unknown

>  <Cp0_units>  (3) 
unknown

>  <CpInf_value>  (3) 
unknown

>  <CpInf_units>  (3) 
unknown

>  <Tmin_value>  (3) 
unknown

>  <Tmin_units>  (3) 
unknown

>  <Tmax_value>  (3) 
unknown

>  <Tmax_units>  (3) 
unknown

>  <polynomials>  (3) 
unknown

>  <H298_value>  (3) 
unknown

>  <H298_units>  (3) 
unknown

>  <S298_value>  (3) 
unknown

>  <S298_units>  (3) 
unknown

>  <Cp_T_value_list>  (3) 
unknown

>  <Cp_T_units>  (3) 
unknown

>  <T_list>  (3) 
unknown

>  <T_units>  (3) 
unknown

>  <yaml_path>  (3) 
unknown

>  <frequencies_cm1>  (3) 
unknown

>  <ZPE_kJmol>  (3) 
unknown

>  <E_elec_kJmol>  (3) 
unknown

>  <E0_minus_Eelec_plus_ZPE_kJmol>  (3) 
unknown

>  <rxn>  (3) 
unknown

>  <species_type>  (3) 
unknown

>  <species_folder>  (3) 
unknown

>  <frequencies_cm1_list>  (3) 
[]

>  <ts_imag_freq_cm1>  (3) 
-1708.3023

>  <ts_freq_out_path>  (3) 
/home/calvin/Dropbox/PersonalFolders/Calvin/HAb_Converged/rxn_1185/output/rxns/TS0/geometry/freq.out

>  <E0_kJmol>  (3) 
-1.53289e+06

>  <H298_kJmol>  (3) 
unknown

$$$$

     RDKit          3D

 15 14  0  0  0  0  0  0  0  0999 V2000
    2.4381    0.5770   -0.2356 C   0  0  0  0  0  0  0  0  0  1  0  0
    1.4430   -0.3367   -0.1409 C   0  0  0  0  0  0  0  0  0  2  0  0
    0.0521   -0.0957   -0.0045 C   0  0  0  0  0  3  0  0  0  3  0  0
   -0.5167    1.2867    0.0548 C   0  0  0  0  0  0  0  0  0  4  0  0
   -0.8226   -1.2147    0.0778 C   0  0  0  0  0  0  0  0  0  5  0  0
   -2.1666   -1.1669    0.2092 C   0  0  0  0  0  0  0  0  0  6  0  0
    3.4666    0.2585   -0.3369 H   0  0  0  0  0  0  0  0  0  7  0  0
    2.2594    1.6438   -0.2152 H   0  0  0  0  0  0  0  0  0  8  0  0
    1.7306   -1.3845   -0.1719 H   0  0  0  0  0  0  0  0  0  9  0  0
   -1.2300    1.4469   -0.7583 H   0  0  0  0  0  0  0  0  0 10  0  0
    0.2481    2.0557   -0.0178 H   0  0  0  0  0  0  0  0  0 11  0  0
   -1.0592    1.4421    0.9914 H   0  0  0  0  0  0  0  0  0 12  0  0
   -0.3519   -2.1929    0.0292 H   0  0  0  0  0  0  0  0  0 13  0  0
   -2.7080   -0.2310    0.2646 H   0  0  0  0  0  0  0  0  0 14  0  0
   -2.7513   -2.0751    0.2638 H   0  0  0  0  0  0  0  0  0 15  0  0
  1  8  1  0
  1  7  1  0
  1  2  1  0
  2  9  1  0
  2  3  1  0
  3  4  1  0
  3  5  1  0
  4 12  1  0
  4 10  1  0
  4 11  1  0
  5  6  1  0
  5 13  1  0
  6 15  1  0
  6 14  1  0
M  RAD  1   3   2
M  END
>  <rmg_smiles>  (4) 
[CH2][CH][C](C)[CH][CH2]

>  <rmg_adjacency_list>  (4) 
multiplicity 2
1  C u0 p0 c0 {2,S} {7,S} {8,S} {9,S}
2  C u1 p0 c0 {1,S} {3,S} {4,S}
3  C u0 p0 c0 {2,S} {5,S} {10,S}
4  C u0 p0 c0 {2,S} {6,S} {11,S}
5  C u0 p0 c0 {3,S} {12,S} {13,S}
6  C u0 p0 c0 {4,S} {14,S} {15,S}
7  H u0 p0 c0 {1,S}
8  H u0 p0 c0 {1,S}
9  H u0 p0 c0 {1,S}
10 H u0 p0 c0 {3,S}
11 H u0 p0 c0 {4,S}
12 H u0 p0 c0 {5,S}
13 H u0 p0 c0 {5,S}
14 H u0 p0 c0 {6,S}
15 H u0 p0 c0 {6,S}


>  <multiplicity>  (4) 
2

>  <reaction>  (4) 
rxn_1185

>  <type>  (4) 
r1

>  <role_mapnums>  (4) 
{}

>  <role_mapidx>  (4) 
{}

>  <ordered_mapped_smiles>  (4) 
[CH:1]([CH:2]([C:3]([C:4]([H:10])([H:11])[H:12])[CH:5]([CH:6]([H:14])[H:15])[H:13])[H:9])([H:7])[H:8]

>  <level_of_theory>  (4) 
wb97xd/def2tzvp

>  <lot_method>  (4) 
wb97xd

>  <lot_basis>  (4) 
def2tzvp

>  <spin_multiplicity>  (4) 
2.0

>  <optical_isomers>  (4) 
1.0

>  <modes>  (4) 
IdealGasTranslation(mass=(81.0704, 'amu')),         NonlinearRotor(             inertia = ([62.5293, 224.796, 284.21

>  <frequency_value>  (4) 
unknown

>  <frequency_units>  (4) 
unknown

>  <frequency_list>  (4) 
unknown

>  <arkane_path>  (4) 
/home/calvin/Dropbox/PersonalFolders/Calvin/HAb_Converged/rxn_1185/output/Species/rxn_1185_C=C[C][C]C=C/arkane/output.py

>  <path_exists>  (4) 
True

>  <E0_value>  (4) 
-614016.405434086

>  <E0_units>  (4) 
kJ/mol

>  <thermo_class>  (4) 
NASA

>  <Cp0_value>  (4) 
33.257888

>  <Cp0_units>  (4) 
J/(mol*K)

>  <CpInf_value>  (4) 
357.522296

>  <CpInf_units>  (4) 
J/(mol*K)

>  <Tmin_value>  (4) 
10.0

>  <Tmin_units>  (4) 
K

>  <Tmax_value>  (4) 
3000.0

>  <Tmax_units>  (4) 
K

>  <polynomials>  (4) 
[{"name": "polynomial1", "class": "NASAPolynomial", "Tmin_value": 10.0, "Tmin_units": "K", "Tmax_value": 419.0689826855313, "Tmax_units": "K", "coeffs": [3.7461378399183536, 0.022464955908256024, 8.810794690126274e-05, -1.8449270689510127e-07, 1.148776845632381e-10, -73849113.49735299, 11.570077105248336]}, {"name": "polynomial2", "class": "NASAPolynomial", "Tmin_value": 419.0689826855313, "Tmin_units": "K", "Tmax_value": 3000.0, "Tmax_units": "K", "coeffs": [0.16809288681172943, 0.05661667084847684, -3.41312558204021e-05, 9.965368111618754e-09, -1.1262510033039744e-12, -73848813.6024703, 25.720243230921767]}]

>  <H298_value>  (4) 
-146748.3088248158

>  <H298_units>  (4) 
kcal/mol

>  <S298_value>  (4) 
83.69704340475995

>  <S298_units>  (4) 
cal/(mol*K)

>  <Cp_T_value_list>  (4) 
[28.545319179186908, 35.69564824876572, 41.96760480546441, 47.409581732443996, 56.15524022360577, 62.58234917827583, 71.99499165792618, 76.66511553325982, 79.18424304962427]

>  <Cp_T_units>  (4) 
cal/(mol*K)

>  <T_list>  (4) 
[300.0, 400.0, 500.0, 600.0, 800.0, 1000.0, 1500.0, 2000.0, 2400.0]

>  <T_units>  (4) 
K

>  <yaml_path>  (4) 
/home/calvin/Dropbox/PersonalFolders/Calvin/HAb_Converged/rxn_1185/output/Species/rxn_1185_C=C[C][C]C=C/rxn_1185_C=CCCC=C.yml

>  <frequencies_cm1>  (4) 
[55.7255858718, 142.91569847984, 243.59943724168, 250.04753645715996, 341.08316084439997, 359.56908532584, 490.81090876168, 546.8592429435199, 586.89376735912, 682.6813455877999, 764.7280861911601, 864.3131073018001, 877.42218227768, 957.0998129456399, 982.96774664608, 1004.23480018212, 1020.31727980156, 1028.45465740576, 1074.8823451542798, 1211.9885740533998, 1279.2781632040799, 1315.0139548093598, 1360.63133829012, 1400.4461191754801, 1420.0719632200398, 1441.723567934, 1468.0927915628, 1488.2405264916797, 1525.7960692067597, 1597.66593756588, 3009.75159685876, 3060.48488440292, 3115.2559593152396, 3122.0886097086404, 3125.7967817814397, 3133.8517555617996, 3139.09126536096, 3221.11053802304, 3224.1388785491595]

>  <ZPE_kJmol>  (4) 
334.5664415862221

>  <E_elec_kJmol>  (4) 
-614350.9718756722

>  <E0_minus_Eelec_plus_ZPE_kJmol>  (4) 
0.0

>  <rxn>  (4) 
rxn_1185

>  <species_type>  (4) 
p1

>  <species_folder>  (4) 
rxn_1185_C=C[C][C]C=C

>  <frequencies_cm1_list>  (4) 
[55.7255858718, 142.91569847984, 243.59943724168, 250.04753645715996, 341.08316084439997, 359.56908532584, 490.81090876168, 546.8592429435199, 586.89376735912, 682.6813455877999, 764.7280861911601, 864.3131073018001, 877.42218227768, 957.0998129456399, 982.96774664608, 1004.23480018212, 1020.31727980156, 1028.45465740576, 1074.8823451542798, 1211.9885740533998, 1279.2781632040799, 1315.0139548093598, 1360.63133829012, 1400.4461191754801, 1420.0719632200398, 1441.723567934, 1468.0927915628, 1488.2405264916797, 1525.7960692067597, 1597.66593756588, 3009.75159685876, 3060.48488440292, 3115.2559593152396, 3122.0886097086404, 3125.7967817814397, 3133.8517555617996, 3139.09126536096, 3221.11053802304, 3224.1388785491595]

>  <E0_kJmol>  (4) 
-614016

>  <H298_kJmol>  (4) 
-613995

$$$$

     RDKit          3D

 20 20  0  0  0  0  0  0  0  0999 V2000
   -2.4774    0.8083    0.1488 C   0  0  0  0  0  0  0  0  0  1  0  0
   -1.4172   -0.1696   -0.2476 C   0  0  0  0  0  3  0  0  0  2  0  0
   -0.2904    0.2932   -1.1156 C   0  0  0  0  0  0  0  0  0  3  0  0
   -1.4797   -1.5204    0.1947 C   0  0  0  0  0  0  0  0  0  4  0  0
   -0.4907   -2.4664   -0.1650 C   0  0  0  0  0  0  0  0  0  5  0  0
   -0.5559   -3.7750    0.2665 C   0  0  0  0  0  0  0  0  0  6  0  0
   -1.6038   -4.2041    1.0733 C   0  0  0  0  0  0  0  0  0  7  0  0
   -2.5899   -3.2959    1.4424 C   0  0  0  0  0  0  0  0  0  8  0  0
   -2.5339   -1.9852    1.0162 C   0  0  0  0  0  0  0  0  0  9  0  0
   -3.4697    0.4933   -0.1924 H   0  0  0  0  0  0  0  0  0 10  0  0
   -2.5434    0.9184    1.2368 H   0  0  0  0  0  0  0  0  0 11  0  0
   -2.2829    1.7944   -0.2706 H   0  0  0  0  0  0  0  0  0 12  0  0
   -0.2452   -0.2661   -2.0565 H   0  0  0  0  0  0  0  0  0 13  0  0
   -0.3905    1.3487   -1.3647 H   0  0  0  0  0  0  0  0  0 14  0  0
    0.6811    0.1589   -0.6274 H   0  0  0  0  0  0  0  0  0 15  0  0
    0.3373   -2.1635   -0.7918 H   0  0  0  0  0  0  0  0  0 16  0  0
    0.2187   -4.4725   -0.0281 H   0  0  0  0  0  0  0  0  0 17  0  0
   -1.6513   -5.2316    1.4097 H   0  0  0  0  0  0  0  0  0 18  0  0
   -3.4116   -3.6175    2.0706 H   0  0  0  0  0  0  0  0  0 19  0  0
   -3.3164   -1.3029    1.3205 H   0  0  0  0  0  0  0  0  0 20  0  0
  1 11  1  0
  1 10  1  0
  1 12  1  0
  1  2  1  0
  2  3  1  0
  2  4  1  0
  3 15  1  0
  3 13  1  0
  3 14  1  0
  4  9  1  0
  4  5  1  0
  5 16  1  0
  5  6  1  0
  6  7  1  0
  6 17  1  0
  7 18  1  0
  7  8  1  0
  8 19  1  0
  8  9  1  0
  9 20  1  0
M  RAD  1   2   2
M  END
>  <rmg_smiles>  (5) 
C[C](C)C1[CH][CH][CH][CH][CH]1

>  <rmg_adjacency_list>  (5) 
multiplicity 2
1  C u0 p0 c0 {3,S} {10,S} {11,S} {12,S}
2  C u0 p0 c0 {3,S} {13,S} {14,S} {15,S}
3  C u1 p0 c0 {1,S} {2,S} {4,S}
4  C u0 p0 c0 {3,S} {5,S} {6,S}
5  C u0 p0 c0 {4,S} {7,S} {16,S}
6  C u0 p0 c0 {4,S} {9,S} {20,S}
7  C u0 p0 c0 {5,S} {8,S} {17,S}
8  C u0 p0 c0 {7,S} {9,S} {18,S}
9  C u0 p0 c0 {6,S} {8,S} {19,S}
10 H u0 p0 c0 {1,S}
11 H u0 p0 c0 {1,S}
12 H u0 p0 c0 {1,S}
13 H u0 p0 c0 {2,S}
14 H u0 p0 c0 {2,S}
15 H u0 p0 c0 {2,S}
16 H u0 p0 c0 {5,S}
17 H u0 p0 c0 {7,S}
18 H u0 p0 c0 {8,S}
19 H u0 p0 c0 {9,S}
20 H u0 p0 c0 {6,S}


>  <multiplicity>  (5) 
2

>  <reaction>  (5) 
rxn_1185

>  <type>  (5) 
r2

>  <role_mapnums>  (5) 
{}

>  <role_mapidx>  (5) 
{}

>  <ordered_mapped_smiles>  (5) 
[C:1]([C:2]([C:3]([H:13])([H:14])[H:15])[CH:4]1[CH:5]([H:16])[CH:6]([H:17])[CH:7]([H:18])[CH:8]([H:19])[CH:9]1[H:20])([H:10])([H:11])[H:12]

>  <level_of_theory>  (5) 
wb97xd/def2tzvp

>  <lot_method>  (5) 
wb97xd

>  <lot_basis>  (5) 
def2tzvp

>  <spin_multiplicity>  (5) 
2.0

>  <optical_isomers>  (5) 
1.0

>  <modes>  (5) 
IdealGasTranslation(mass=(119.086, 'amu')),         NonlinearRotor(             inertia = ([147.943, 418.336, 560.064

>  <frequency_value>  (5) 
unknown

>  <frequency_units>  (5) 
unknown

>  <frequency_list>  (5) 
unknown

>  <arkane_path>  (5) 
/home/calvin/Dropbox/PersonalFolders/Calvin/HAb_Converged/rxn_1185/output/Species/rxn_1185_C[C][C]c1ccccc1/arkane/output.py

>  <path_exists>  (5) 
True

>  <E0_value>  (5) 
-917305.6793154374

>  <E0_units>  (5) 
kJ/mol

>  <thermo_class>  (5) 
NASA

>  <Cp0_value>  (5) 
33.257888

>  <Cp0_units>  (5) 
J/(mol*K)

>  <CpInf_value>  (5) 
482.239376

>  <CpInf_units>  (5) 
J/(mol*K)

>  <Tmin_value>  (5) 
10.0

>  <Tmin_units>  (5) 
K

>  <Tmax_value>  (5) 
3000.0

>  <Tmax_units>  (5) 
K

>  <polynomials>  (5) 
[{"name": "polynomial1", "class": "NASAPolynomial", "Tmin_value": 10.0, "Tmin_units": "K", "Tmax_value": 820.2225002457031, "Tmax_units": "K", "coeffs": [3.7087715908878534, 0.03551334410867291, 7.625059119540152e-05, -1.2560734316113271e-07, 5.320480088877488e-11, -110326392.84742013, 12.19412592857727]}, {"name": "polynomial2", "class": "NASAPolynomial", "Tmin_value": 820.2225002457031, "Tmin_units": "K", "Tmax_value": 3000.0, "Tmax_units": "K", "coeffs": [2.0631615838326263, 0.07155383546720528, -4.0892856549356014e-05, 1.1247434201086425e-08, -1.200197285964276e-12, -110327065.27984656, 14.06242109608226]}]

>  <H298_value>  (5) 
-219235.10103074583

>  <H298_units>  (5) 
kcal/mol

>  <S298_value>  (5) 
91.98557876161978

>  <S298_units>  (5) 
cal/(mol*K)

>  <Cp_T_value_list>  (5) 
[36.29610547032918, 46.57490747487287, 55.94477856481854, 64.04994476982951, 76.31181375819965, 84.99555925751662, 97.907834516263, 104.08137794150619, 107.1390022615462]

>  <Cp_T_units>  (5) 
cal/(mol*K)

>  <T_list>  (5) 
[300.0, 400.0, 500.0, 600.0, 800.0, 1000.0, 1500.0, 2000.0, 2400.0]

>  <T_units>  (5) 
K

>  <yaml_path>  (5) 
/home/calvin/Dropbox/PersonalFolders/Calvin/HAb_Converged/rxn_1185/output/Species/rxn_1185_C[C][C]c1ccccc1/rxn_1185_CCCc1ccccc1.yml

>  <frequencies_cm1>  (5) 
[63.56081612192, 120.90701052923998, 139.35173309875998, 146.39726003707997, 226.46630886828, 338.41877054023996, 360.33818768168, 416.18737928923997, 451.99870773303996, 518.2376481297599, 524.17759043156, 626.9420257453601, 690.9491959130801, 730.7777107690799, 767.1040631118799, 830.7266821016799, 897.8583305899999, 913.4944561636399, 942.5692720085199, 968.56767843004, 978.9505602338799, 993.91372124616, 999.23563486916, 1039.80578413972, 1044.4753341573198, 1105.9691876979198, 1113.02158162156, 1170.28537220504, 1199.70353731592, 1239.75866268748, 1319.3882244581998, 1348.18836089028, 1355.0896811368798, 1389.11559339748, 1406.12511603512, 1462.54426742424, 1462.78461191044, 1474.0258668792799, 1486.24910074888, 1486.8121935451197, 1509.72045657264, 1596.1139988835598, 1617.80680550944, 2981.31541064864, 2984.9205779416397, 3027.138803689, 3028.1413835457197, 3095.76058799176, 3103.71255699232, 3152.0767346010794, 3159.1703304366397, 3175.07426843776, 3181.8657169192397, 3186.23311958276]

>  <ZPE_kJmol>  (5) 
445.9053042173275

>  <E_elec_kJmol>  (5) 
-917751.5846196548

>  <E0_minus_Eelec_plus_ZPE_kJmol>  (5) 
0.0

>  <rxn>  (5) 
rxn_1185

>  <species_type>  (5) 
r1

>  <species_folder>  (5) 
rxn_1185_C[C][C]c1ccccc1

>  <frequencies_cm1_list>  (5) 
[63.56081612192, 120.90701052923998, 139.35173309875998, 146.39726003707997, 226.46630886828, 338.41877054023996, 360.33818768168, 416.18737928923997, 451.99870773303996, 518.2376481297599, 524.17759043156, 626.9420257453601, 690.9491959130801, 730.7777107690799, 767.1040631118799, 830.7266821016799, 897.8583305899999, 913.4944561636399, 942.5692720085199, 968.56767843004, 978.9505602338799, 993.91372124616, 999.23563486916, 1039.80578413972, 1044.4753341573198, 1105.9691876979198, 1113.02158162156, 1170.28537220504, 1199.70353731592, 1239.75866268748, 1319.3882244581998, 1348.18836089028, 1355.0896811368798, 1389.11559339748, 1406.12511603512, 1462.54426742424, 1462.78461191044, 1474.0258668792799, 1486.24910074888, 1486.8121935451197, 1509.72045657264, 1596.1139988835598, 1617.80680550944, 2981.31541064864, 2984.9205779416397, 3027.138803689, 3028.1413835457197, 3095.76058799176, 3103.71255699232, 3152.0767346010794, 3159.1703304366397, 3175.07426843776, 3181.8657169192397, 3186.23311958276]

>  <E0_kJmol>  (5) 
-917306

>  <H298_kJmol>  (5) 
-917280

$$$$
