
     RDKit          3D

  5  4  0  0  0  0  0  0  0  0999 V2000
   -0.0038   -0.0242   -0.0131 C   0  0  0  0  0  0  0  0  0  1  0  0
    0.1171    0.9223    0.5060 H   0  0  0  0  0  0  0  0  0  2  0  0
    0.6671   -0.7103    0.4950 H   0  0  0  0  0  0  0  0  0  3  0  0
   -1.0538   -0.2842    0.0935 H   0  0  0  0  0  0  0  0  0  4  0  0
    0.2914    0.1785   -1.0382 H   0  0  0  0  0  0  0  0  0  5  0  0
  1  3  1  0
  1  5  1  0
  1  4  1  0
  1  2  1  0
M  END
>  <rmg_smiles>  (1) 
C

>  <rmg_adjacency_list>  (1) 
1 C u0 p0 c0 {2,S} {3,S} {4,S} {5,S}
2 H u0 p0 c0 {1,S}
3 H u0 p0 c0 {1,S}
4 H u0 p0 c0 {1,S}
5 H u0 p0 c0 {1,S}


>  <multiplicity>  (1) 
1

>  <reaction>  (1) 
rxn_854

>  <type>  (1) 
r1h

>  <role_mapnums>  (1) 
{"r1h_a": 1, "r1h_h": 2}

>  <role_mapidx>  (1) 
{"r1h_a": 0, "r1h_h": 1}

>  <ordered_mapped_smiles>  (1) 
[C:1]([H:2])([H:3])([H:4])[H:5]

>  <mol_properties>  (1) 
{"0": {"label": "donator", "atom_type": "Cs"}, "1": {"label": "d_hydrogen", "atom_type": "H0"}}

>  <level_of_theory>  (1) 
wb97xd/def2tzvp

>  <lot_method>  (1) 
wb97xd

>  <lot_basis>  (1) 
def2tzvp

>  <spin_multiplicity>  (1) 
1.0

>  <optical_isomers>  (1) 
1.0

>  <modes>  (1) 
IdealGasTranslation(mass=(16.0313, 'amu')),         NonlinearRotor(             inertia = ([3.18679, 3.18679, 3.18679

>  <frequency_value>  (1) 
unknown

>  <frequency_units>  (1) 
unknown

>  <frequency_list>  (1) 
unknown

>  <arkane_path>  (1) 
/home/calvin/Dropbox/PersonalFolders/Calvin/HAb_Converged/rxn_854/output/Species/rxn_854_C/arkane/output.py

>  <path_exists>  (1) 
True

>  <E0_value>  (1) 
-106268.5262916272

>  <E0_units>  (1) 
kJ/mol

>  <thermo_class>  (1) 
NASA

>  <Cp0_value>  (1) 
33.257888

>  <Cp0_units>  (1) 
J/(mol*K)

>  <CpInf_value>  (1) 
108.088136

>  <CpInf_units>  (1) 
J/(mol*K)

>  <Tmin_value>  (1) 
10.0

>  <Tmin_units>  (1) 
K

>  <Tmax_value>  (1) 
3000.0

>  <Tmax_units>  (1) 
K

>  <polynomials>  (1) 
[{"name": "polynomial1", "class": "NASAPolynomial", "Tmin_value": 10.0, "Tmin_units": "K", "Tmax_value": 616.7595780986624, "Tmax_units": "K", "coeffs": [4.041420799946622, -0.002477807655966685, 1.1290457802459216e-05, 3.700688819348292e-09, -9.366412561864162e-12, -12781153.318458663, -0.42637433538586406]}, {"name": "polynomial2", "class": "NASAPolynomial", "Tmin_value": 616.7595780986624, "Tmin_units": "K", "Tmax_value": 3000.0, "Tmax_units": "K", "coeffs": [0.6800320423470843, 0.011684066325645743, -4.5749540261290126e-06, 7.694671628924811e-10, -3.8768177461555664e-14, -12780593.404419335, 15.343675764562182]}]

>  <H298_value>  (1) 
-25396.41264990868

>  <H298_units>  (1) 
kcal/mol

>  <S298_value>  (1) 
44.46392088520575

>  <S298_units>  (1) 
cal/(mol*K)

>  <Cp_T_value_list>  (1) 
[8.621039065772948, 9.645572285350525, 10.934239595808906, 12.330144838344452, 14.859142397339834, 16.9306880471269, 20.49440393107996, 22.423230884533538, 23.291918246513866]

>  <Cp_T_units>  (1) 
cal/(mol*K)

>  <T_list>  (1) 
[300.0, 400.0, 500.0, 600.0, 800.0, 1000.0, 1500.0, 2000.0, 2400.0]

>  <T_units>  (1) 
K

>  <yaml_path>  (1) 
/home/calvin/Dropbox/PersonalFolders/Calvin/HAb_Converged/rxn_854/output/Species/rxn_854_C/rxn_854_C.yml

>  <frequencies_cm1>  (1) 
[1326.5504901469599, 1326.5504901469599, 1326.5504901469599, 1542.24249904816, 1542.24249904816, 3008.8382878112, 3127.32125252248, 3127.32125252248, 3127.32125252248]

>  <ZPE_kJmol>  (1) 
116.36640738144024

>  <E_elec_kJmol>  (1) 
-106384.89269900863

>  <E0_minus_Eelec_plus_ZPE_kJmol>  (1) 
0.0

>  <rxn>  (1) 
rxn_854

>  <species_type>  (1) 
r1

>  <species_folder>  (1) 
rxn_854_C

>  <frequencies_cm1_list>  (1) 
[1326.5504901469599, 1326.5504901469599, 1326.5504901469599, 1542.24249904816, 1542.24249904816, 3008.8382878112, 3127.32125252248, 3127.32125252248, 3127.32125252248]

>  <E0_kJmol>  (1) 
-106269

>  <H298_kJmol>  (1) 
-106259

$$$$

     RDKit          3D

  8  7  0  0  0  0  0  0  0  0999 V2000
   -2.2697    0.3290    0.7469 C   0  0  0  0  0  0  0  0  0  1  0  0
   -1.1877   -0.1855    0.1835 C   0  0  0  0  0  0  0  0  0  2  0  0
    0.1330    0.3900    0.1935 C   0  0  0  0  0  0  0  0  0  3  0  0
    1.4550   -0.2338   -0.4921 S   0  0  0  0  0  0  0  0  0  4  0  0
   -2.2361    1.2737    1.2863 H   0  0  0  0  0  0  0  0  0  5  0  0
   -3.2307   -0.1700    0.6931 H   0  0  0  0  0  0  0  0  0  6  0  0
    0.2055    1.3428    0.7281 H   0  0  0  0  0  0  0  0  0  7  0  0
   -1.2877   -1.1349   -0.3424 H   0  0  0  0  0  0  0  0  0  8  0  0
  1  5  1  0
  1  6  1  0
  1  2  1  0
  2  8  1  0
  2  3  1  0
  3  7  1  0
  3  4  1  0
M  END
>  <rmg_smiles>  (2) 
[CH2][CH][CH][S]

>  <rmg_adjacency_list>  (2) 
1 S u0 p2 c0 {4,S}
2 C u0 p0 c0 {3,S} {4,S} {5,S}
3 C u0 p0 c0 {2,S} {6,S} {7,S}
4 C u0 p0 c0 {1,S} {2,S} {8,S}
5 H u0 p0 c0 {2,S}
6 H u0 p0 c0 {3,S}
7 H u0 p0 c0 {3,S}
8 H u0 p0 c0 {4,S}


>  <multiplicity>  (2) 
1

>  <reaction>  (2) 
rxn_854

>  <type>  (2) 
r2h

>  <role_mapnums>  (2) 
{"r2h_a": 2, "r2h_h": 8}

>  <role_mapidx>  (2) 
{"r2h_a": 1, "r2h_h": 7}

>  <ordered_mapped_smiles>  (2) 
[CH:1]([CH:2]([CH:3]([SH:4])[H:7])[H:8])([H:5])[H:6]

>  <mol_properties>  (2) 
{"1": {"label": "acceptor", "atom_type": "Cs"}, "7": {"label": "a_hydrogen", "atom_type": "H0"}}

>  <level_of_theory>  (2) 
wb97xd/def2tzvp

>  <lot_method>  (2) 
wb97xd

>  <lot_basis>  (2) 
def2tzvp

>  <spin_multiplicity>  (2) 
1.0

>  <optical_isomers>  (2) 
1.0

>  <modes>  (2) 
IdealGasTranslation(mass=(72.0034, 'amu')),         NonlinearRotor(             inertia = ([10.8259, 179.445, 190.271

>  <frequency_value>  (2) 
unknown

>  <frequency_units>  (2) 
unknown

>  <frequency_list>  (2) 
unknown

>  <arkane_path>  (2) 
/home/calvin/Dropbox/PersonalFolders/Calvin/HAb_Converged/rxn_854/output/Species/rxn_854_C=CC=S/arkane/output.py

>  <path_exists>  (2) 
True

>  <E0_value>  (2) 
-1351663.0036055504

>  <E0_units>  (2) 
kJ/mol

>  <thermo_class>  (2) 
NASA

>  <Cp0_value>  (2) 
33.257888

>  <Cp0_units>  (2) 
J/(mol*K)

>  <CpInf_value>  (2) 
182.918384

>  <CpInf_units>  (2) 
J/(mol*K)

>  <Tmin_value>  (2) 
10.0

>  <Tmin_units>  (2) 
K

>  <Tmax_value>  (2) 
3000.0

>  <Tmax_units>  (2) 
K

>  <polynomials>  (2) 
[{"name": "polynomial1", "class": "NASAPolynomial", "Tmin_value": 10.0, "Tmin_units": "K", "Tmax_value": 379.2644192115922, "Tmax_units": "K", "coeffs": [3.9765643065430916, 0.0016004709541293095, 8.72904253733476e-05, -1.7911724885444054e-07, 1.2101661725986147e-10, -162567509.24915665, 9.120160110672158]}, {"name": "polynomial2", "class": "NASAPolynomial", "Tmin_value": 379.2644192115922, "Tmin_units": "K", "Tmax_value": 3000.0, "Tmax_units": "K", "coeffs": [1.464888744558327, 0.0281037867234722, -1.7583624528695405e-05, 5.321955350531072e-09, -6.214743427137124e-13, -162567318.8273217, 18.801153395762828]}]

>  <H298_value>  (2) 
-323051.77369567833

>  <H298_units>  (2) 
kcal/mol

>  <S298_value>  (2) 
69.12773786002882

>  <S298_units>  (2) 
cal/(mol*K)

>  <Cp_T_value_list>  (2) 
[16.805632008963112, 20.304717440143907, 23.344267700018552, 25.964949893337177, 30.135357981253517, 33.15759755729083, 37.504149039419545, 39.684548396616805, 40.90462524755872]

>  <Cp_T_units>  (2) 
cal/(mol*K)

>  <T_list>  (2) 
[300.0, 400.0, 500.0, 600.0, 800.0, 1000.0, 1500.0, 2000.0, 2400.0]

>  <T_units>  (2) 
K

>  <yaml_path>  (2) 
/home/calvin/Dropbox/PersonalFolders/Calvin/HAb_Converged/rxn_854/output/Species/rxn_854_C=CC=S/rxn_854_C=CC=S.yml

>  <frequencies_cm1>  (2) 
[143.52686017332, 284.27945827736, 458.62534856684, 626.85962192152, 901.60770457472, 915.3554091853599, 995.0811087505599, 1035.17743603404, 1098.5734445082799, 1194.99965237172, 1299.26109048528, 1341.3969124088, 1455.1759921758799, 1675.0087932250397, 3064.563873683, 3123.0293866974803, 3158.3600261688803, 3216.07703778348]

>  <ZPE_kJmol>  (2) 
155.4365784144883

>  <E_elec_kJmol>  (2) 
-1351818.4401839648

>  <E0_minus_Eelec_plus_ZPE_kJmol>  (2) 
0.0

>  <rxn>  (2) 
rxn_854

>  <species_type>  (2) 
p0

>  <species_folder>  (2) 
rxn_854_C=CC=S

>  <frequencies_cm1_list>  (2) 
[143.52686017332, 284.27945827736, 458.62534856684, 626.85962192152, 901.60770457472, 915.3554091853599, 995.0811087505599, 1035.17743603404, 1098.5734445082799, 1194.99965237172, 1299.26109048528, 1341.3969124088, 1455.1759921758799, 1675.0087932250397, 3064.563873683, 3123.0293866974803, 3158.3600261688803, 3216.07703778348]

>  <E0_kJmol>  (2) 
-1.35166e+06

>  <H298_kJmol>  (2) 
-1.35165e+06

$$$$

     RDKit          3D

 12 10  0  0  0  0  0  0  0  0999 V2000
   -1.9376    0.7486    1.0559 C   0  0  0  0  0  0  0  0  0  1  0  0
   -0.8557    0.2341    0.4925 C   0  0  0  0  0  0  0  0  0  2  0  0
    0.4650    0.8096    0.5025 C   0  0  0  0  0  0  0  0  0  3  0  0
    1.7870    0.1857   -0.1831 S   0  0  0  0  0  1  0  0  0  4  0  0
   -1.9041    1.6933    1.5953 H   0  0  0  0  0  0  0  0  0  5  0  0
   -2.8987    0.2496    1.0021 H   0  0  0  0  0  0  0  0  0  6  0  0
    0.5375    1.7624    1.0370 H   0  0  0  0  0  0  0  0  0  7  0  0
   -1.1257   -2.0899   -0.7886 C   0  0  0  0  0  0  0  0  0  8  0  0
   -0.9817   -0.9619   -0.1700 H   0  0  0  0  0  0  0  0  0  9  0  0
   -0.4548   -2.7760   -0.2805 H   0  0  0  0  0  0  0  0  0 10  0  0
   -2.1758   -2.3499   -0.6820 H   0  0  0  0  0  0  0  0  0 11  0  0
   -0.8305   -1.8872   -1.8137 H   0  0  0  0  0  0  0  0  0 12  0  0
  1  5  1  0
  1  6  1  0
  1  2  1  0
  2  3  1  0
  3  7  1  0
  3  4  1  0
  8 10  1  0
  8 11  1  0
  8  9  1  0
  8 12  1  0
M  RAD  1   4   2
M  END
>  <rmg_smiles>  (3) 
[CH2][C][CH][S].C

>  <rmg_adjacency_list>  (3) 
multiplicity 2
1  S u1 p2 c0 {4,S}
2  C u0 p0 c0 {6,S} {7,S} {8,S} {9,S}
3  C u0 p0 c0 {5,S} {10,S} {11,S}
4  C u0 p0 c0 {1,S} {5,S} {12,S}
5  C u0 p1 c0 {3,S} {4,S}
6  H u0 p0 c0 {2,S}
7  H u0 p0 c0 {2,S}
8  H u0 p0 c0 {2,S}
9  H u0 p0 c0 {2,S}
10 H u0 p0 c0 {3,S}
11 H u0 p0 c0 {3,S}
12 H u0 p0 c0 {4,S}


>  <multiplicity>  (3) 
2

>  <reaction>  (3) 
rxn_854

>  <type>  (3) 
ts

>  <role_mapnums>  (3) 
{"*2": 9, "*1": 8, "*3": 2, "*0": 10, "*4": 3}

>  <role_mapidx>  (3) 
{"*2": 8, "*1": 7, "*3": 1, "*0": 9, "*4": 2}

>  <ordered_mapped_smiles>  (3) 
[CH:1]([CH2:2][CH:3]([S:4])[H:7])([H:5])[H:6].[C:8]([H:9])([H:10])([H:11])[H:12]

>  <mol_properties>  (3) 
{"1": {"label": "*3", "atom_type": "C2s"}, "2": {"label": "*4", "atom_type": "Cs"}, "7": {"label": "*1", "atom_type": "Cs"}, "8": {"label": "*2", "atom_type": "H0"}, "9": {"label": "*0", "atom_type": "H0"}}

>  <level_of_theory>  (3) 
wb97xd/def2tzvp

>  <lot_method>  (3) 
wb97xd

>  <lot_basis>  (3) 
def2tzvp

>  <spin_multiplicity>  (3) 
2.0

>  <optical_isomers>  (3) 
1.0

>  <modes>  (3) 
IdealGasTranslation(mass=(87.0269, 'amu')),         NonlinearRotor(             inertia = ([117.897, 203.922, 318.511

>  <frequency_value>  (3) 
-1599.57

>  <frequency_units>  (3) 
cm^-1

>  <frequency_list>  (3) 
unknown

>  <arkane_path>  (3) 
/home/calvin/Dropbox/PersonalFolders/Calvin/HAb_Converged/rxn_854/output/rxns/TS0/arkane/output.py

>  <path_exists>  (3) 
True

>  <E0_value>  (3) 
-1456120.0

>  <E0_units>  (3) 
kJ/mol

>  <thermo_class>  (3) 
unknown

>  <Cp0_value>  (3) 
unknown

>  <Cp0_units>  (3) 
unknown

>  <CpInf_value>  (3) 
unknown

>  <CpInf_units>  (3) 
unknown

>  <Tmin_value>  (3) 
unknown

>  <Tmin_units>  (3) 
unknown

>  <Tmax_value>  (3) 
unknown

>  <Tmax_units>  (3) 
unknown

>  <polynomials>  (3) 
unknown

>  <H298_value>  (3) 
unknown

>  <H298_units>  (3) 
unknown

>  <S298_value>  (3) 
unknown

>  <S298_units>  (3) 
unknown

>  <Cp_T_value_list>  (3) 
unknown

>  <Cp_T_units>  (3) 
unknown

>  <T_list>  (3) 
unknown

>  <T_units>  (3) 
unknown

>  <yaml_path>  (3) 
unknown

>  <frequencies_cm1>  (3) 
unknown

>  <ZPE_kJmol>  (3) 
unknown

>  <E_elec_kJmol>  (3) 
unknown

>  <E0_minus_Eelec_plus_ZPE_kJmol>  (3) 
unknown

>  <rxn>  (3) 
unknown

>  <species_type>  (3) 
unknown

>  <species_folder>  (3) 
unknown

>  <frequencies_cm1_list>  (3) 
[]

>  <ts_imag_freq_cm1>  (3) 
-1619.0002

>  <ts_freq_out_path>  (3) 
/home/calvin/Dropbox/PersonalFolders/Calvin/HAb_Converged/rxn_854/output/rxns/TS0/geometry/freq.out

>  <E0_kJmol>  (3) 
-1.45612e+06

>  <H298_kJmol>  (3) 
unknown

$$$$

     RDKit          3D

  4  3  0  0  0  0  0  0  0  0999 V2000
    0.0000    0.0000    0.0000 C   0  0  0  0  0  3  0  0  0  1  0  0
    1.0638   -0.1747    0.0540 H   0  0  0  0  0  0  0  0  0  2  0  0
   -0.6833   -0.8351   -0.0280 H   0  0  0  0  0  0  0  0  0  3  0  0
   -0.3805    1.0098   -0.0260 H   0  0  0  0  0  0  0  0  0  4  0  0
  1  3  1  0
  1  4  1  0
  1  2  1  0
M  RAD  1   1   2
M  END
>  <rmg_smiles>  (4) 
[CH3]

>  <rmg_adjacency_list>  (4) 
multiplicity 2
1 C u1 p0 c0 {2,S} {3,S} {4,S}
2 H u0 p0 c0 {1,S}
3 H u0 p0 c0 {1,S}
4 H u0 p0 c0 {1,S}


>  <multiplicity>  (4) 
2

>  <reaction>  (4) 
rxn_854

>  <type>  (4) 
r1

>  <role_mapnums>  (4) 
{}

>  <role_mapidx>  (4) 
{}

>  <ordered_mapped_smiles>  (4) 
[C:1]([H:2])([H:3])[H:4]

>  <level_of_theory>  (4) 
wb97xd/def2tzvp

>  <lot_method>  (4) 
wb97xd

>  <lot_basis>  (4) 
def2tzvp

>  <spin_multiplicity>  (4) 
2.0

>  <optical_isomers>  (4) 
1.0

>  <modes>  (4) 
IdealGasTranslation(mass=(15.0235, 'amu')),         NonlinearRotor(             inertia = ([1.76141, 1.76141, 3.52282

>  <frequency_value>  (4) 
unknown

>  <frequency_units>  (4) 
unknown

>  <frequency_list>  (4) 
unknown

>  <arkane_path>  (4) 
/home/calvin/Dropbox/PersonalFolders/Calvin/HAb_Converged/rxn_854/output/Species/rxn_854_[CH3]/arkane/output.py

>  <path_exists>  (4) 
True

>  <E0_value>  (4) 
-104520.13119505512

>  <E0_units>  (4) 
kJ/mol

>  <thermo_class>  (4) 
NASA

>  <Cp0_value>  (4) 
33.257888

>  <Cp0_units>  (4) 
J/(mol*K)

>  <CpInf_value>  (4) 
83.14472

>  <CpInf_units>  (4) 
J/(mol*K)

>  <Tmin_value>  (4) 
10.0

>  <Tmin_units>  (4) 
K

>  <Tmax_value>  (4) 
3000.0

>  <Tmax_units>  (4) 
K

>  <polynomials>  (4) 
[{"name": "polynomial1", "class": "NASAPolynomial", "Tmin_value": 10.0, "Tmin_units": "K", "Tmax_value": 646.6680568167106, "Tmax_units": "K", "coeffs": [3.9912271000461548, 0.0004274218009639198, 9.38132315134313e-06, -1.0944874554220949e-08, 4.263406085556096e-12, -12570867.748368958, 0.20527673099681187]}, {"name": "polynomial2", "class": "NASAPolynomial", "Tmin_value": 646.6680568167106, "Tmin_units": "K", "Tmax_value": 3000.0, "Tmax_units": "K", "coeffs": [3.2488827598675174, 0.0050187516265713635, -1.2675301815554908e-06, 3.215102013021586e-11, 2.0164394281080815e-14, -12570771.728238096, 3.4631324604304954]}]

>  <H298_value>  (4) 
-24978.383291331436

>  <H298_units>  (4) 
kcal/mol

>  <S298_value>  (4) 
46.49953999396709

>  <S298_units>  (4) 
cal/(mol*K)

>  <Cp_T_value_list>  (4) 
[9.345424201068383, 10.07887042200736, 10.827537754048599, 11.552428339520182, 12.871902382304132, 14.014614114932202, 16.167234911840477, 17.479674567657305, 18.096247059343543]

>  <Cp_T_units>  (4) 
cal/(mol*K)

>  <T_list>  (4) 
[300.0, 400.0, 500.0, 600.0, 800.0, 1000.0, 1500.0, 2000.0, 2400.0]

>  <T_units>  (4) 
K

>  <yaml_path>  (4) 
/home/calvin/Dropbox/PersonalFolders/Calvin/HAb_Converged/rxn_854/output/Species/rxn_854_[CH3]/rxn_854_CH3.yml

>  <frequencies_cm1>  (4) 
[520.22220688724, 1393.4280601784399, 1393.43492716376, 3088.8592677451597, 3268.6163424668, 3268.6232094521197]

>  <ZPE_kJmol>  (4) 
77.35764153782172

>  <E_elec_kJmol>  (4) 
-104597.48883659294

>  <E0_minus_Eelec_plus_ZPE_kJmol>  (4) 
0.0

>  <rxn>  (4) 
rxn_854

>  <species_type>  (4) 
p1

>  <species_folder>  (4) 
rxn_854_[CH3]

>  <frequencies_cm1_list>  (4) 
[520.22220688724, 1393.4280601784399, 1393.43492716376, 3088.8592677451597, 3268.6163424668, 3268.6232094521197]

>  <E0_kJmol>  (4) 
-104520

>  <H298_kJmol>  (4) 
-104510

$$$$

     RDKit          3D

  7  6  0  0  0  0  0  0  0  0999 V2000
   -1.3496    0.0255    0.0758 C   0  0  0  0  0  0  0  0  0  1  0  0
   -0.0636   -0.0704   -0.0033 C   0  0  0  0  0  0  0  0  0  2  0  0
    1.2597   -0.1602   -0.0839 C   0  0  0  0  0  0  0  0  0  3  0  0
    2.2616    1.2090   -0.0064 S   0  0  0  0  0  1  0  0  0  4  0  0
   -1.8547   -0.0180    1.0345 H   0  0  0  0  0  0  0  0  0  5  0  0
   -1.9552    0.1601   -0.8138 H   0  0  0  0  0  0  0  0  0  6  0  0
    1.7017   -1.1460   -0.2029 H   0  0  0  0  0  0  0  0  0  7  0  0
  1  5  1  0
  1  6  1  0
  1  2  1  0
  2  3  1  0
  3  7  1  0
  3  4  1  0
M  RAD  1   4   2
M  END
>  <rmg_smiles>  (5) 
[CH2][C][CH][S]

>  <rmg_adjacency_list>  (5) 
multiplicity 2
1 S u1 p2 c0 {3,S}
2 C u0 p0 c0 {4,S} {5,S} {6,S}
3 C u0 p0 c0 {1,S} {4,S} {7,S}
4 C u0 p1 c0 {2,S} {3,S}
5 H u0 p0 c0 {2,S}
6 H u0 p0 c0 {2,S}
7 H u0 p0 c0 {3,S}


>  <multiplicity>  (5) 
2

>  <reaction>  (5) 
rxn_854

>  <type>  (5) 
r2

>  <role_mapnums>  (5) 
{}

>  <role_mapidx>  (5) 
{}

>  <ordered_mapped_smiles>  (5) 
[CH:1]([CH2:2][CH:3]([S:4])[H:7])([H:5])[H:6]

>  <level_of_theory>  (5) 
wb97xd/def2tzvp

>  <lot_method>  (5) 
wb97xd

>  <lot_basis>  (5) 
def2tzvp

>  <spin_multiplicity>  (5) 
2.0

>  <optical_isomers>  (5) 
1.0

>  <modes>  (5) 
IdealGasTranslation(mass=(70.9955, 'amu')),         NonlinearRotor(             inertia = ([15.5037, 168.136, 180.155

>  <frequency_value>  (5) 
unknown

>  <frequency_units>  (5) 
unknown

>  <frequency_list>  (5) 
unknown

>  <arkane_path>  (5) 
/home/calvin/Dropbox/PersonalFolders/Calvin/HAb_Converged/rxn_854/output/Species/rxn_854_C=[C]C=S/arkane/output.py

>  <path_exists>  (5) 
True

>  <E0_value>  (5) 
-1349974.9514304646

>  <E0_units>  (5) 
kJ/mol

>  <thermo_class>  (5) 
NASA

>  <Cp0_value>  (5) 
33.257888

>  <Cp0_units>  (5) 
J/(mol*K)

>  <CpInf_value>  (5) 
157.97496800000002

>  <CpInf_units>  (5) 
J/(mol*K)

>  <Tmin_value>  (5) 
10.0

>  <Tmin_units>  (5) 
K

>  <Tmax_value>  (5) 
3000.0

>  <Tmax_units>  (5) 
K

>  <polynomials>  (5) 
[{"name": "polynomial1", "class": "NASAPolynomial", "Tmin_value": 10.0, "Tmin_units": "K", "Tmax_value": 512.4132081755071, "Tmax_units": "K", "coeffs": [3.9367277430889454, 0.003960033189618784, 7.680606340322444e-05, -1.641203227603232e-07, 1.0627515985980872e-10, -162364481.16895175, 9.658168165074201]}, {"name": "polynomial2", "class": "NASAPolynomial", "Tmin_value": 512.4132081755071, "Tmin_units": "K", "Tmax_value": 3000.0, "Tmax_units": "K", "coeffs": [3.3647333007428304, 0.021676302493600218, -1.3845685269614659e-05, 4.288319658509041e-09, -5.118697163047367e-13, -162364596.5155951, 10.337743376880406]}]

>  <H298_value>  (5) 
-322648.2691664007

>  <H298_units>  (5) 
kcal/mol

>  <S298_value>  (5) 
70.4232093854119

>  <S298_units>  (5) 
cal/(mol*K)

>  <Cp_T_value_list>  (5) 
[16.825406163279702, 19.925033202376387, 22.34696643388099, 24.335344385010114, 27.48404868602145, 29.752059218905067, 33.00379104512425, 34.67921562368621, 35.642206703773255]

>  <Cp_T_units>  (5) 
cal/(mol*K)

>  <T_list>  (5) 
[300.0, 400.0, 500.0, 600.0, 800.0, 1000.0, 1500.0, 2000.0, 2400.0]

>  <T_units>  (5) 
K

>  <yaml_path>  (5) 
/home/calvin/Dropbox/PersonalFolders/Calvin/HAb_Converged/rxn_854/output/Species/rxn_854_C=[C]C=S/rxn_854_C=CC=S.yml

>  <frequencies_cm1>  (5) 
[185.77942084728, 296.71556869188, 468.53440838359995, 521.0531121109599, 831.68806004648, 859.1354003705198, 874.6204522671201, 960.9109897982398, 1069.9999185917598, 1278.95541489404, 1416.10284570508, 1949.0701773462401, 3107.4275960504397, 3110.5658083416797, 3188.7189682686003]

>  <ZPE_kJmol>  (5) 
120.34004192737773

>  <E_elec_kJmol>  (5) 
-1350095.291472392

>  <E0_minus_Eelec_plus_ZPE_kJmol>  (5) 
0.0

>  <rxn>  (5) 
rxn_854

>  <species_type>  (5) 
r0

>  <species_folder>  (5) 
rxn_854_C=[C]C=S

>  <frequencies_cm1_list>  (5) 
[185.77942084728, 296.71556869188, 468.53440838359995, 521.0531121109599, 831.68806004648, 859.1354003705198, 874.6204522671201, 960.9109897982398, 1069.9999185917598, 1278.95541489404, 1416.10284570508, 1949.0701773462401, 3107.4275960504397, 3110.5658083416797, 3188.7189682686003]

>  <E0_kJmol>  (5) 
-1.34997e+06

>  <H298_kJmol>  (5) 
-1.34996e+06

$$$$
