
     RDKit          3D

 10  9  0  0  0  0  0  0  0  0999 V2000
    0.0022   -0.3827   -1.2460 C   0  0  0  0  0  0  0  0  0  1  0  0
   -0.0461   -0.4825    0.2742 C   0  0  0  0  0  0  0  0  0  2  0  0
    0.0594    0.7702    1.0044 N   0  0  0  0  0  0  0  0  0  3  0  0
    0.9342    0.0845   -1.5742 H   0  0  0  0  0  0  0  0  0  4  0  0
   -0.8272    0.2193   -1.6216 H   0  0  0  0  0  0  0  0  0  5  0  0
   -0.0582   -1.3709   -1.7066 H   0  0  0  0  0  0  0  0  0  6  0  0
    0.7732   -1.1232    0.6223 H   0  0  0  0  0  0  0  0  0  7  0  0
   -0.9699   -0.9744    0.5893 H   0  0  0  0  0  0  0  0  0  8  0  0
   -0.7729    1.3176    0.7820 H   0  0  0  0  0  0  0  0  0  9  0  0
    0.7914    1.3339    0.5707 H   0  0  0  0  0  0  0  0  0 10  0  0
  1  5  1  0
  1  4  1  0
  1  6  1  0
  1  2  1  0
  2  3  1  0
  2  8  1  0
  2  7  1  0
  3  9  1  0
  3 10  1  0
M  END
>  <rmg_smiles>  (1) 
CCN

>  <rmg_adjacency_list>  (1) 
1  N u0 p1 c0 {2,S} {9,S} {10,S}
2  C u0 p0 c0 {1,S} {3,S} {4,S} {5,S}
3  C u0 p0 c0 {2,S} {6,S} {7,S} {8,S}
4  H u0 p0 c0 {2,S}
5  H u0 p0 c0 {2,S}
6  H u0 p0 c0 {3,S}
7  H u0 p0 c0 {3,S}
8  H u0 p0 c0 {3,S}
9  H u0 p0 c0 {1,S}
10 H u0 p0 c0 {1,S}


>  <multiplicity>  (1) 
1

>  <reaction>  (1) 
rxn_116

>  <type>  (1) 
r1h

>  <role_mapnums>  (1) 
{"r1h_a": 3, "r1h_h": 9}

>  <role_mapidx>  (1) 
{"r1h_a": 2, "r1h_h": 8}

>  <ordered_mapped_smiles>  (1) 
[C:1]([C:2]([N:3]([H:9])[H:10])([H:7])[H:8])([H:4])([H:5])[H:6]

>  <mol_properties>  (1) 
{"2": {"label": "donator", "atom_type": "N3s"}, "8": {"label": "d_hydrogen", "atom_type": "H0"}}

>  <level_of_theory>  (1) 
wb97xd/def2tzvp

>  <lot_method>  (1) 
wb97xd

>  <lot_basis>  (1) 
def2tzvp

>  <spin_multiplicity>  (1) 
1.0

>  <optical_isomers>  (1) 
1.0

>  <modes>  (1) 
IdealGasTranslation(mass=(45.0579, 'amu')),         NonlinearRotor(             inertia = ([15.7277, 57.3635, 64.2089

>  <frequency_value>  (1) 
unknown

>  <frequency_units>  (1) 
unknown

>  <frequency_list>  (1) 
unknown

>  <arkane_path>  (1) 
/home/calvin/Dropbox/PersonalFolders/Calvin/HAb_Converged/rxn_116/output/Species/rxn_116_CCN/arkane/output.py

>  <path_exists>  (1) 
True

>  <E0_value>  (1) 
-354689.84818470286

>  <E0_units>  (1) 
kJ/mol

>  <thermo_class>  (1) 
NASA

>  <Cp0_value>  (1) 
33.257888

>  <Cp0_units>  (1) 
J/(mol*K)

>  <CpInf_value>  (1) 
232.805216

>  <CpInf_units>  (1) 
J/(mol*K)

>  <Tmin_value>  (1) 
10.0

>  <Tmin_units>  (1) 
K

>  <Tmax_value>  (1) 
3000.0

>  <Tmax_units>  (1) 
K

>  <polynomials>  (1) 
[{"name": "polynomial1", "class": "NASAPolynomial", "Tmin_value": 10.0, "Tmin_units": "K", "Tmax_value": 549.7769733558987, "Tmax_units": "K", "coeffs": [3.978502637787712, 0.0017919643352501413, 6.861727884324767e-05, -1.0050224262377416e-07, 4.7413949587236435e-11, -42659334.4958342, 7.218737236497344]}, {"name": "polynomial2", "class": "NASAPolynomial", "Tmin_value": 549.7769733558987, "Tmin_units": "K", "Tmax_value": 3000.0, "Tmax_units": "K", "coeffs": [-0.4004249279364886, 0.033651417390805606, -1.8306808195141843e-05, 4.902327657624583e-09, -5.163356805599726e-13, -42658853.00592058, 25.724899679540332]}]

>  <H298_value>  (1) 
-84769.53933941506

>  <H298_units>  (1) 
kcal/mol

>  <S298_value>  (1) 
64.92664026144718

>  <S298_units>  (1) 
cal/(mol*K)

>  <Cp_T_value_list>  (1) 
[16.61729792675961, 20.777648064652308, 24.699776608588017, 28.202355622698988, 33.98689948562485, 38.41305189827611, 45.34365899763087, 48.94971995331861, 50.782586135633935]

>  <Cp_T_units>  (1) 
cal/(mol*K)

>  <T_list>  (1) 
[300.0, 400.0, 500.0, 600.0, 800.0, 1000.0, 1500.0, 2000.0, 2400.0]

>  <T_units>  (1) 
K

>  <yaml_path>  (1) 
/home/calvin/Dropbox/PersonalFolders/Calvin/HAb_Converged/rxn_116/output/Species/rxn_116_CCN/rxn_116_CCN.yml

>  <frequencies_cm1>  (1) 
[246.98486100443998, 284.44426592504, 404.4929032892799, 777.63801859276, 840.63574191844, 892.5364169669999, 1003.2871562079599, 1071.39391661172, 1149.12819043412, 1262.16563578664, 1372.6691635560799, 1379.0485929183599, 1398.4134915207599, 1475.28939217816, 1479.96580918108, 1492.8894755533202, 1650.9880785756798, 3000.7489791042394, 3017.20227593096, 3048.6874036231598, 3078.2154404991597, 3080.0832605062, 3485.1873254889597, 3564.0683858597995]

>  <ZPE_kJmol>  (1) 
241.98166850213624

>  <E_elec_kJmol>  (1) 
-354931.829853205

>  <E0_minus_Eelec_plus_ZPE_kJmol>  (1) 
0.0

>  <rxn>  (1) 
rxn_116

>  <species_type>  (1) 
r0

>  <species_folder>  (1) 
rxn_116_CCN

>  <frequencies_cm1_list>  (1) 
[246.98486100443998, 284.44426592504, 404.4929032892799, 777.63801859276, 840.63574191844, 892.5364169669999, 1003.2871562079599, 1071.39391661172, 1149.12819043412, 1262.16563578664, 1372.6691635560799, 1379.0485929183599, 1398.4134915207599, 1475.28939217816, 1479.96580918108, 1492.8894755533202, 1650.9880785756798, 3000.7489791042394, 3017.20227593096, 3048.6874036231598, 3078.2154404991597, 3080.0832605062, 3485.1873254889597, 3564.0683858597995]

>  <E0_kJmol>  (1) 
-354690

>  <H298_kJmol>  (1) 
-354676

$$$$

     RDKit          3D

  5  4  0  0  0  0  0  0  0  0999 V2000
    0.8186   -0.5348    0.3946 H   0  0  0  0  0  0  0  0  0  1  0  0
   -0.0234    0.0164   -0.0144 C   0  0  0  0  0  0  0  0  0  2  0  0
   -0.7659   -0.7447   -0.2389 H   0  0  0  0  0  0  0  0  0  3  0  0
    0.3252    0.5509   -0.8929 H   0  0  0  0  0  0  0  0  0  4  0  0
   -0.3046    0.6675    0.8085 H   0  0  0  0  0  0  0  0  0  5  0  0
  1  2  1  0
  2  5  1  0
  2  3  1  0
  2  4  1  0
M  END
>  <rmg_smiles>  (2) 
C

>  <rmg_adjacency_list>  (2) 
1 H u0 p0 c0 {2,S}
2 C u0 p0 c0 {1,S} {3,S} {4,S} {5,S}
3 H u0 p0 c0 {2,S}
4 H u0 p0 c0 {2,S}
5 H u0 p0 c0 {2,S}


>  <multiplicity>  (2) 
1

>  <reaction>  (2) 
rxn_116

>  <type>  (2) 
r2h

>  <role_mapnums>  (2) 
{"r2h_a": 2, "r2h_h": 1}

>  <role_mapidx>  (2) 
{"r2h_a": 1, "r2h_h": 0}

>  <ordered_mapped_smiles>  (2) 
[H:1][C:2]([H:3])([H:4])[H:5]

>  <mol_properties>  (2) 
{"0": {"label": "a_hydrogen", "atom_type": "H0"}, "1": {"label": "acceptor", "atom_type": "Cs"}}

>  <level_of_theory>  (2) 
wb97xd/def2tzvp

>  <lot_method>  (2) 
wb97xd

>  <lot_basis>  (2) 
def2tzvp

>  <spin_multiplicity>  (2) 
1.0

>  <optical_isomers>  (2) 
1.0

>  <modes>  (2) 
IdealGasTranslation(mass=(16.0313, 'amu')),         NonlinearRotor(             inertia = ([3.18679, 3.18679, 3.18679

>  <frequency_value>  (2) 
unknown

>  <frequency_units>  (2) 
unknown

>  <frequency_list>  (2) 
unknown

>  <arkane_path>  (2) 
/home/calvin/Dropbox/PersonalFolders/Calvin/HAb_Converged/rxn_116/output/Species/rxn_116_C/arkane/output.py

>  <path_exists>  (2) 
True

>  <E0_value>  (2) 
-106268.5262916272

>  <E0_units>  (2) 
kJ/mol

>  <thermo_class>  (2) 
NASA

>  <Cp0_value>  (2) 
33.257888

>  <Cp0_units>  (2) 
J/(mol*K)

>  <CpInf_value>  (2) 
108.088136

>  <CpInf_units>  (2) 
J/(mol*K)

>  <Tmin_value>  (2) 
10.0

>  <Tmin_units>  (2) 
K

>  <Tmax_value>  (2) 
3000.0

>  <Tmax_units>  (2) 
K

>  <polynomials>  (2) 
[{"name": "polynomial1", "class": "NASAPolynomial", "Tmin_value": 10.0, "Tmin_units": "K", "Tmax_value": 616.7595780986624, "Tmax_units": "K", "coeffs": [4.041420799946622, -0.002477807655966685, 1.1290457802459216e-05, 3.700688819348292e-09, -9.366412561864162e-12, -12781153.318458663, -0.42637433538586406]}, {"name": "polynomial2", "class": "NASAPolynomial", "Tmin_value": 616.7595780986624, "Tmin_units": "K", "Tmax_value": 3000.0, "Tmax_units": "K", "coeffs": [0.6800320423470843, 0.011684066325645743, -4.5749540261290126e-06, 7.694671628924811e-10, -3.8768177461555664e-14, -12780593.404419335, 15.343675764562182]}]

>  <H298_value>  (2) 
-25396.41264990868

>  <H298_units>  (2) 
kcal/mol

>  <S298_value>  (2) 
44.46392088520575

>  <S298_units>  (2) 
cal/(mol*K)

>  <Cp_T_value_list>  (2) 
[8.621039065772948, 9.645572285350525, 10.934239595808906, 12.330144838344452, 14.859142397339834, 16.9306880471269, 20.49440393107996, 22.423230884533538, 23.291918246513866]

>  <Cp_T_units>  (2) 
cal/(mol*K)

>  <T_list>  (2) 
[300.0, 400.0, 500.0, 600.0, 800.0, 1000.0, 1500.0, 2000.0, 2400.0]

>  <T_units>  (2) 
K

>  <yaml_path>  (2) 
/home/calvin/Dropbox/PersonalFolders/Calvin/HAb_Converged/rxn_116/output/Species/rxn_116_C/rxn_116_C.yml

>  <frequencies_cm1>  (2) 
[1326.5504901469599, 1326.5504901469599, 1326.5504901469599, 1542.24249904816, 1542.24249904816, 3008.8382878112, 3127.32125252248, 3127.32125252248, 3127.32125252248]

>  <ZPE_kJmol>  (2) 
116.36640738144024

>  <E_elec_kJmol>  (2) 
-106384.89269900863

>  <E0_minus_Eelec_plus_ZPE_kJmol>  (2) 
0.0

>  <rxn>  (2) 
rxn_116

>  <species_type>  (2) 
p1

>  <species_folder>  (2) 
rxn_116_C

>  <frequencies_cm1_list>  (2) 
[1326.5504901469599, 1326.5504901469599, 1326.5504901469599, 1542.24249904816, 1542.24249904816, 3008.8382878112, 3127.32125252248, 3127.32125252248, 3127.32125252248]

>  <E0_kJmol>  (2) 
-106269

>  <H298_kJmol>  (2) 
-106259

$$$$

     RDKit          3D

 14 12  0  0  0  0  0  0  0  0999 V2000
    0.5460   -0.9196   -1.2793 C   0  0  0  0  0  0  0  0  0  1  0  0
    0.4977   -1.0195    0.2409 C   0  0  0  0  0  0  0  0  0  2  0  0
    0.6032    0.2333    0.9710 N   0  0  0  0  0  0  0  0  0  3  0  0
    1.4780   -0.4524   -1.6075 H   0  0  0  0  0  0  0  0  0  4  0  0
   -0.2834   -0.3176   -1.6549 H   0  0  0  0  0  0  0  0  0  5  0  0
    0.4856   -1.9078   -1.7400 H   0  0  0  0  0  0  0  0  0  6  0  0
    1.3170   -1.6601    0.5889 H   0  0  0  0  0  0  0  0  0  7  0  0
   -0.4261   -1.5113    0.5560 H   0  0  0  0  0  0  0  0  0  8  0  0
   -0.4015    0.8941    0.7025 H   0  0  0  0  0  0  0  0  0  9  0  0
    1.3352    0.7969    0.5374 H   0  0  0  0  0  0  0  0  0 10  0  0
   -1.4492    1.5800    0.1936 C   0  0  0  0  0  3  0  0  0 11  0  0
   -2.1917    0.8188   -0.0309 H   0  0  0  0  0  0  0  0  0 12  0  0
   -1.1006    2.1145   -0.6849 H   0  0  0  0  0  0  0  0  0 13  0  0
   -1.7304    2.2310    1.0166 H   0  0  0  0  0  0  0  0  0 14  0  0
  1  5  1  0
  1  4  1  0
  1  6  1  0
  1  2  1  0
  2  3  1  0
  2  8  1  0
  2  7  1  0
  3  9  1  0
  3 10  1  0
 11 14  1  0
 11 13  1  0
 11 12  1  0
M  RAD  1  11   2
M  END
>  <rmg_smiles>  (3) 
CCN.[CH3]

>  <rmg_adjacency_list>  (3) 
multiplicity 2
1  N u0 p1 c0 {2,S} {10,S} {11,S}
2  C u0 p0 c0 {1,S} {3,S} {5,S} {6,S}
3  C u0 p0 c0 {2,S} {7,S} {8,S} {9,S}
4  C u1 p0 c0 {12,S} {13,S} {14,S}
5  H u0 p0 c0 {2,S}
6  H u0 p0 c0 {2,S}
7  H u0 p0 c0 {3,S}
8  H u0 p0 c0 {3,S}
9  H u0 p0 c0 {3,S}
10 H u0 p0 c0 {1,S}
11 H u0 p0 c0 {1,S}
12 H u0 p0 c0 {4,S}
13 H u0 p0 c0 {4,S}
14 H u0 p0 c0 {4,S}


>  <multiplicity>  (3) 
2

>  <reaction>  (3) 
rxn_116

>  <type>  (3) 
ts

>  <role_mapnums>  (3) 
{"*2": 9, "*1": 3, "*3": 11, "*0": 2, "*4": 12}

>  <role_mapidx>  (3) 
{"*2": 8, "*1": 2, "*3": 10, "*0": 1, "*4": 11}

>  <ordered_mapped_smiles>  (3) 
[C:1]([C:2]([N:3]([H:9])[H:10])([H:7])[H:8])([H:4])([H:5])[H:6].[C:11]([H:12])([H:13])[H:14]

>  <mol_properties>  (3) 
{"1": {"label": "*0", "atom_type": "Cs"}, "2": {"label": "*1", "atom_type": "N3s"}, "8": {"label": "*2", "atom_type": "H0"}, "10": {"label": "*3", "atom_type": "Cs"}, "11": {"label": "*4", "atom_type": "H0"}}

>  <level_of_theory>  (3) 
wb97xd/def2tzvp

>  <lot_method>  (3) 
wb97xd

>  <lot_basis>  (3) 
def2tzvp

>  <spin_multiplicity>  (3) 
2.0

>  <optical_isomers>  (3) 
2.0

>  <modes>  (3) 
IdealGasTranslation(mass=(60.0813, 'amu')),         NonlinearRotor(             inertia = ([53.2792, 128.81, 161.216

>  <frequency_value>  (3) 
-1840.75

>  <frequency_units>  (3) 
cm^-1

>  <frequency_list>  (3) 
unknown

>  <arkane_path>  (3) 
/home/calvin/Dropbox/PersonalFolders/Calvin/HAb_Converged/rxn_116/output/rxns/TS0/arkane/output.py

>  <path_exists>  (3) 
True

>  <E0_value>  (3) 
-459167.0

>  <E0_units>  (3) 
kJ/mol

>  <thermo_class>  (3) 
unknown

>  <Cp0_value>  (3) 
unknown

>  <Cp0_units>  (3) 
unknown

>  <CpInf_value>  (3) 
unknown

>  <CpInf_units>  (3) 
unknown

>  <Tmin_value>  (3) 
unknown

>  <Tmin_units>  (3) 
unknown

>  <Tmax_value>  (3) 
unknown

>  <Tmax_units>  (3) 
unknown

>  <polynomials>  (3) 
unknown

>  <H298_value>  (3) 
unknown

>  <H298_units>  (3) 
unknown

>  <S298_value>  (3) 
unknown

>  <S298_units>  (3) 
unknown

>  <Cp_T_value_list>  (3) 
unknown

>  <Cp_T_units>  (3) 
unknown

>  <T_list>  (3) 
unknown

>  <T_units>  (3) 
unknown

>  <yaml_path>  (3) 
unknown

>  <frequencies_cm1>  (3) 
unknown

>  <ZPE_kJmol>  (3) 
unknown

>  <E_elec_kJmol>  (3) 
unknown

>  <E0_minus_Eelec_plus_ZPE_kJmol>  (3) 
unknown

>  <rxn>  (3) 
unknown

>  <species_type>  (3) 
unknown

>  <species_folder>  (3) 
unknown

>  <frequencies_cm1_list>  (3) 
[]

>  <ts_imag_freq_cm1>  (3) 
-1863.111

>  <ts_freq_out_path>  (3) 
/home/calvin/Dropbox/PersonalFolders/Calvin/HAb_Converged/rxn_116/output/rxns/TS0/geometry/freq.out

>  <E0_kJmol>  (3) 
-459167

>  <H298_kJmol>  (3) 
unknown

$$$$

     RDKit          3D

  9  8  0  0  0  0  0  0  0  0999 V2000
   -1.0434   -0.0834    0.0221 C   0  0  0  0  0  0  0  0  0  1  0  0
    0.4680   -0.2131    0.0785 C   0  0  0  0  0  0  0  0  0  2  0  0
    0.9450   -1.3136   -0.7058 N   0  0  0  0  0  2  0  0  0  3  0  0
   -1.5170   -0.9919    0.3960 H   0  0  0  0  0  0  0  0  0  4  0  0
   -1.3864    0.7592    0.6249 H   0  0  0  0  0  0  0  0  0  5  0  0
   -1.3736    0.0696   -1.0061 H   0  0  0  0  0  0  0  0  0  6  0  0
    0.8045   -0.3309    1.1214 H   0  0  0  0  0  0  0  0  0  7  0  0
    0.9463    0.7186   -0.2648 H   0  0  0  0  0  0  0  0  0  8  0  0
    1.9638   -1.3321   -0.6157 H   0  0  0  0  0  0  0  0  0  9  0  0
  1  5  1  0
  1  4  1  0
  1  6  1  0
  1  2  1  0
  2  3  1  0
  2  8  1  0
  2  7  1  0
  3  9  1  0
M  RAD  1   3   2
M  END
>  <rmg_smiles>  (4) 
CC[NH]

>  <rmg_adjacency_list>  (4) 
multiplicity 2
1 N u1 p1 c0 {2,S} {9,S}
2 C u0 p0 c0 {1,S} {3,S} {4,S} {5,S}
3 C u0 p0 c0 {2,S} {6,S} {7,S} {8,S}
4 H u0 p0 c0 {2,S}
5 H u0 p0 c0 {2,S}
6 H u0 p0 c0 {3,S}
7 H u0 p0 c0 {3,S}
8 H u0 p0 c0 {3,S}
9 H u0 p0 c0 {1,S}


>  <multiplicity>  (4) 
2

>  <reaction>  (4) 
rxn_116

>  <type>  (4) 
r1

>  <role_mapnums>  (4) 
{}

>  <role_mapidx>  (4) 
{}

>  <ordered_mapped_smiles>  (4) 
[C:1]([C:2]([N:3][H:9])([H:7])[H:8])([H:4])([H:5])[H:6]

>  <level_of_theory>  (4) 
wb97xd/def2tzvp

>  <lot_method>  (4) 
wb97xd

>  <lot_basis>  (4) 
def2tzvp

>  <spin_multiplicity>  (4) 
2.0

>  <optical_isomers>  (4) 
1.0

>  <modes>  (4) 
IdealGasTranslation(mass=(44.05, 'amu')),         NonlinearRotor(             inertia = ([13.5046, 54.0855, 61.3855

>  <frequency_value>  (4) 
unknown

>  <frequency_units>  (4) 
unknown

>  <frequency_list>  (4) 
unknown

>  <arkane_path>  (4) 
/home/calvin/Dropbox/PersonalFolders/Calvin/HAb_Converged/rxn_116/output/Species/rxn_116_CC[NH]/arkane/output.py

>  <path_exists>  (4) 
True

>  <E0_value>  (4) 
-352969.95079979324

>  <E0_units>  (4) 
kJ/mol

>  <thermo_class>  (4) 
NASA

>  <Cp0_value>  (4) 
33.257888

>  <Cp0_units>  (4) 
J/(mol*K)

>  <CpInf_value>  (4) 
207.8618

>  <CpInf_units>  (4) 
J/(mol*K)

>  <Tmin_value>  (4) 
10.0

>  <Tmin_units>  (4) 
K

>  <Tmax_value>  (4) 
3000.0

>  <Tmax_units>  (4) 
K

>  <polynomials>  (4) 
[{"name": "polynomial1", "class": "NASAPolynomial", "Tmin_value": 10.0, "Tmin_units": "K", "Tmax_value": 495.37641751518163, "Tmax_units": "K", "coeffs": [3.966263768002755, 0.0019003420341934735, 6.761467068649794e-05, -1.0859819083951573e-07, 5.658103680503394e-11, -42452477.224521674, 7.847859831074511]}, {"name": "polynomial2", "class": "NASAPolynomial", "Tmin_value": 495.37641751518163, "Tmin_units": "K", "Tmax_value": 3000.0, "Tmax_units": "K", "coeffs": [0.532220911058863, 0.029632850522814398, -1.6370741518243097e-05, 4.442820809870006e-09, -4.7472031401616e-13, -42452137.04180414, 22.002466714324683]}]

>  <H298_value>  (4) 
-84358.50964177452

>  <H298_units>  (4) 
kcal/mol

>  <S298_value>  (4) 
65.90798772684772

>  <S298_units>  (4) 
cal/(mol*K)

>  <Cp_T_value_list>  (4) 
[16.19144456234696, 19.957392119483067, 23.412558305777747, 26.462813861694304, 31.480342856948162, 35.29761718648, 41.21183488164014, 44.23918583516747, 45.75158484944388]

>  <Cp_T_units>  (4) 
cal/(mol*K)

>  <T_list>  (4) 
[300.0, 400.0, 500.0, 600.0, 800.0, 1000.0, 1500.0, 2000.0, 2400.0]

>  <T_units>  (4) 
K

>  <yaml_path>  (4) 
/home/calvin/Dropbox/PersonalFolders/Calvin/HAb_Converged/rxn_116/output/Species/rxn_116_CC[NH]/rxn_116_CCNH.yml

>  <frequencies_cm1>  (4) 
[215.54780220947998, 313.0658607388, 421.33075129391995, 726.5957167091999, 902.32873803332, 1018.4151248679198, 1029.1207549817998, 1087.9845531448398, 1242.70459938976, 1258.69094121472, 1381.9189927821199, 1408.32255133752, 1429.1295168571198, 1475.1657864423998, 1485.8096136883998, 2923.26191675336, 2945.2843386746, 3021.78942212472, 3097.67647689604, 3102.6619082383595, 3400.85387877404]

>  <ZPE_kJmol>  (4) 
202.6932728728076

>  <E_elec_kJmol>  (4) 
-353172.64407266607

>  <E0_minus_Eelec_plus_ZPE_kJmol>  (4) 
0.0

>  <rxn>  (4) 
rxn_116

>  <species_type>  (4) 
p0

>  <species_folder>  (4) 
rxn_116_CC[NH]

>  <frequencies_cm1_list>  (4) 
[215.54780220947998, 313.0658607388, 421.33075129391995, 726.5957167091999, 902.32873803332, 1018.4151248679198, 1029.1207549817998, 1087.9845531448398, 1242.70459938976, 1258.69094121472, 1381.9189927821199, 1408.32255133752, 1429.1295168571198, 1475.1657864423998, 1485.8096136883998, 2923.26191675336, 2945.2843386746, 3021.78942212472, 3097.67647689604, 3102.6619082383595, 3400.85387877404]

>  <E0_kJmol>  (4) 
-352970

>  <H298_kJmol>  (4) 
-352956

$$$$

     RDKit          3D

  4  3  0  0  0  0  0  0  0  0999 V2000
    0.0000    0.0000    0.0000 C   0  0  0  0  0  3  0  0  0  1  0  0
    1.0638   -0.1747    0.0540 H   0  0  0  0  0  0  0  0  0  2  0  0
   -0.6833   -0.8351   -0.0280 H   0  0  0  0  0  0  0  0  0  3  0  0
   -0.3805    1.0098   -0.0260 H   0  0  0  0  0  0  0  0  0  4  0  0
  1  3  1  0
  1  4  1  0
  1  2  1  0
M  RAD  1   1   2
M  END
>  <rmg_smiles>  (5) 
[CH3]

>  <rmg_adjacency_list>  (5) 
multiplicity 2
1 C u1 p0 c0 {2,S} {3,S} {4,S}
2 H u0 p0 c0 {1,S}
3 H u0 p0 c0 {1,S}
4 H u0 p0 c0 {1,S}


>  <multiplicity>  (5) 
2

>  <reaction>  (5) 
rxn_116

>  <type>  (5) 
r2

>  <role_mapnums>  (5) 
{}

>  <role_mapidx>  (5) 
{}

>  <ordered_mapped_smiles>  (5) 
[C:1]([H:2])([H:3])[H:4]

>  <level_of_theory>  (5) 
wb97xd/def2tzvp

>  <lot_method>  (5) 
wb97xd

>  <lot_basis>  (5) 
def2tzvp

>  <spin_multiplicity>  (5) 
2.0

>  <optical_isomers>  (5) 
1.0

>  <modes>  (5) 
IdealGasTranslation(mass=(15.0235, 'amu')),         NonlinearRotor(             inertia = ([1.76141, 1.76141, 3.52282

>  <frequency_value>  (5) 
unknown

>  <frequency_units>  (5) 
unknown

>  <frequency_list>  (5) 
unknown

>  <arkane_path>  (5) 
/home/calvin/Dropbox/PersonalFolders/Calvin/HAb_Converged/rxn_116/output/Species/rxn_116_[CH3]/arkane/output.py

>  <path_exists>  (5) 
True

>  <E0_value>  (5) 
-104520.13119505512

>  <E0_units>  (5) 
kJ/mol

>  <thermo_class>  (5) 
NASA

>  <Cp0_value>  (5) 
33.257888

>  <Cp0_units>  (5) 
J/(mol*K)

>  <CpInf_value>  (5) 
83.14472

>  <CpInf_units>  (5) 
J/(mol*K)

>  <Tmin_value>  (5) 
10.0

>  <Tmin_units>  (5) 
K

>  <Tmax_value>  (5) 
3000.0

>  <Tmax_units>  (5) 
K

>  <polynomials>  (5) 
[{"name": "polynomial1", "class": "NASAPolynomial", "Tmin_value": 10.0, "Tmin_units": "K", "Tmax_value": 646.6680568167106, "Tmax_units": "K", "coeffs": [3.9912271000461548, 0.0004274218009639198, 9.38132315134313e-06, -1.0944874554220949e-08, 4.263406085556096e-12, -12570867.748368958, 0.20527673099681187]}, {"name": "polynomial2", "class": "NASAPolynomial", "Tmin_value": 646.6680568167106, "Tmin_units": "K", "Tmax_value": 3000.0, "Tmax_units": "K", "coeffs": [3.2488827598675174, 0.0050187516265713635, -1.2675301815554908e-06, 3.215102013021586e-11, 2.0164394281080815e-14, -12570771.728238096, 3.4631324604304954]}]

>  <H298_value>  (5) 
-24978.383291331436

>  <H298_units>  (5) 
kcal/mol

>  <S298_value>  (5) 
46.49953999396709

>  <S298_units>  (5) 
cal/(mol*K)

>  <Cp_T_value_list>  (5) 
[9.345424201068383, 10.07887042200736, 10.827537754048599, 11.552428339520182, 12.871902382304132, 14.014614114932202, 16.167234911840477, 17.479674567657305, 18.096247059343543]

>  <Cp_T_units>  (5) 
cal/(mol*K)

>  <T_list>  (5) 
[300.0, 400.0, 500.0, 600.0, 800.0, 1000.0, 1500.0, 2000.0, 2400.0]

>  <T_units>  (5) 
K

>  <yaml_path>  (5) 
/home/calvin/Dropbox/PersonalFolders/Calvin/HAb_Converged/rxn_116/output/Species/rxn_116_[CH3]/rxn_116_CH3.yml

>  <frequencies_cm1>  (5) 
[520.22220688724, 1393.4280601784399, 1393.43492716376, 3088.8592677451597, 3268.6163424668, 3268.6232094521197]

>  <ZPE_kJmol>  (5) 
77.35764153782172

>  <E_elec_kJmol>  (5) 
-104597.48883659294

>  <E0_minus_Eelec_plus_ZPE_kJmol>  (5) 
0.0

>  <rxn>  (5) 
rxn_116

>  <species_type>  (5) 
r1

>  <species_folder>  (5) 
rxn_116_[CH3]

>  <frequencies_cm1_list>  (5) 
[520.22220688724, 1393.4280601784399, 1393.43492716376, 3088.8592677451597, 3268.6163424668, 3268.6232094521197]

>  <E0_kJmol>  (5) 
-104520

>  <H298_kJmol>  (5) 
-104510

$$$$
