
     RDKit          3D

  7  6  0  0  0  0  0  0  0  0999 V2000
   -1.3183   -0.4864   -1.1553 O   0  0  0  0  0  0  0  0  0  1  0  0
   -0.4376   -0.1998   -0.4045 C   0  0  0  0  0  0  0  0  0  2  0  0
   -0.1246    1.1796   -0.0229 C   0  0  0  0  0  2  0  0  0  3  0  0
    0.1307    2.2501    0.2996 N   0  0  0  0  0  0  0  0  0  4  0  0
    0.4359   -1.3005    0.2526 C   0  0  0  0  0  0  0  0  0  5  0  0
    1.2900   -1.0880    1.0368 O   0  0  0  0  0  0  0  0  0  6  0  0
    0.1811   -2.2875   -0.1335 H   0  0  0  0  0  0  0  0  0  7  0  0
  1  2  1  0
  2  3  1  0
  2  5  1  0
  3  4  1  0
  5  7  1  0
  5  6  1  0
M  RAD  1   3   3
M  END
>  <rmg_smiles>  (1) 
[N][C][C]([CH][O])[O]

>  <rmg_adjacency_list>  (1) 
1 O u0 p2 c0 {4,S}
2 O u0 p2 c0 {5,S}
3 N u0 p2 c0 {6,S}
4 C u0 p0 c0 {1,S} {5,S} {6,S}
5 C u0 p0 c0 {2,S} {4,S} {7,S}
6 C u0 p1 c0 {3,S} {4,S}
7 H u0 p0 c0 {5,S}


>  <multiplicity>  (1) 
1

>  <reaction>  (1) 
rxn_3239

>  <type>  (1) 
r1h

>  <role_mapnums>  (1) 
{"r1h_a": 5, "r1h_h": 7}

>  <role_mapidx>  (1) 
{"r1h_a": 4, "r1h_h": 6}

>  <ordered_mapped_smiles>  (1) 
[OH:1][CH:2]([C:3][NH2:4])[CH:5]([OH:6])[H:7]

>  <mol_properties>  (1) 
{"4": {"label": "donator", "atom_type": "Cs"}, "6": {"label": "d_hydrogen", "atom_type": "H0"}}

>  <level_of_theory>  (1) 
wb97xd/def2tzvp

>  <lot_method>  (1) 
wb97xd

>  <lot_basis>  (1) 
def2tzvp

>  <spin_multiplicity>  (1) 
1.0

>  <optical_isomers>  (1) 
1.0

>  <modes>  (1) 
IdealGasTranslation(mass=(83.0007, 'amu')),         NonlinearRotor(             inertia = ([96.3434, 140.528, 236.871

>  <frequency_value>  (1) 
unknown

>  <frequency_units>  (1) 
unknown

>  <frequency_list>  (1) 
unknown

>  <arkane_path>  (1) 
/home/calvin/Dropbox/PersonalFolders/Calvin/ATLAS_Converged/NonRMG/rxn_3239/output/Species/rxn_3239_r2_O=Crbr-CtN-rbrC=O/arkane/output.py

>  <path_exists>  (1) 
True

>  <E0_value>  (1) 
-840239.3524156894

>  <E0_units>  (1) 
kJ/mol

>  <thermo_class>  (1) 
NASA

>  <Cp0_value>  (1) 
33.257888

>  <Cp0_units>  (1) 
J/(mol*K)

>  <CpInf_value>  (1) 
157.97496800000002

>  <CpInf_units>  (1) 
J/(mol*K)

>  <Tmin_value>  (1) 
10.0

>  <Tmin_units>  (1) 
K

>  <Tmax_value>  (1) 
3000.0

>  <Tmax_units>  (1) 
K

>  <polynomials>  (1) 
[{"name": "polynomial1", "class": "NASAPolynomial", "Tmin_value": 10.0, "Tmin_units": "K", "Tmax_value": 277.8171753022404, "Tmax_units": "K", "coeffs": [3.8272643707829737, 0.016351971735588614, 0.00011472284927801032, -5.449441307295338e-07, 7.089720339929807e-10, -101057454.25093481, 10.276959578251263]}, {"name": "polynomial2", "class": "NASAPolynomial", "Tmin_value": 277.8171753022404, "Tmin_units": "K", "Tmax_value": 3000.0, "Tmax_units": "K", "coeffs": [4.721502597310616, 0.021910024762715627, -1.481185489880217e-05, 4.722337274588471e-09, -5.71690030299591e-13, -101057575.07401891, 5.827841367459472]}]

>  <H298_value>  (1) 
-200817.7825688096

>  <H298_units>  (1) 
kcal/mol

>  <S298_value>  (1) 
76.78312356073239

>  <S298_units>  (1) 
cal/(mol*K)

>  <Cp_T_value_list>  (1) 
[20.039617324064004, 22.66053312203586, 24.895947173839822, 26.789895521103283, 29.71590647478132, 31.73632314114142, 34.38577423071608, 35.62224689860408, 36.37296364755319]

>  <Cp_T_units>  (1) 
cal/(mol*K)

>  <T_list>  (1) 
[300.0, 400.0, 500.0, 600.0, 800.0, 1000.0, 1500.0, 2000.0, 2400.0]

>  <T_units>  (1) 
K

>  <yaml_path>  (1) 
/home/calvin/Dropbox/PersonalFolders/Calvin/ATLAS_Converged/NonRMG/rxn_3239/output/Species/rxn_3239_r2_O=Crbr-CtN-rbrC=O/rxn_3239_r2_O=Crbr-CtN-rbrC=O.yml

>  <frequencies_cm1>  (1) 
[108.92412114583999, 143.35518554031998, 249.55311351411999, 295.91213140943995, 495.25384826372, 591.0208255364399, 671.0624064263599, 715.9175545365999, 1010.0168018215599, 1182.27512857376, 1348.97119721676, 1812.7124498469998, 1838.7863931070399, 2353.26780026676, 2954.1152817961197]

>  <ZPE_kJmol>  (1) 
94.33241817106888

>  <E_elec_kJmol>  (1) 
-840333.6848338605

>  <E0_minus_Eelec_plus_ZPE_kJmol>  (1) 
0.0

>  <rxn>  (1) 
rxn_3239

>  <species_type>  (1) 
r1

>  <species_folder>  (1) 
rxn_3239_r2_O=Crbr-CtN-rbrC=O

>  <frequencies_cm1_list>  (1) 
[108.92412114583999, 143.35518554031998, 249.55311351411999, 295.91213140943995, 495.25384826372, 591.0208255364399, 671.0624064263599, 715.9175545365999, 1010.0168018215599, 1182.27512857376, 1348.97119721676, 1812.7124498469998, 1838.7863931070399, 2353.26780026676, 2954.1152817961197]

>  <E0_kJmol>  (1) 
-840239

>  <H298_kJmol>  (1) 
-840222

$$$$

     RDKit          3D

  8  7  0  0  0  0  0  0  0  0999 V2000
   -1.0730   -0.7941    1.0070 N   0  0  0  0  0  0  0  0  0  1  0  0
    0.1314   -0.8695    0.1970 C   0  0  0  0  0  0  0  0  0  2  0  0
    0.4702    0.3906   -0.4805 C   0  0  0  0  0  2  0  0  0  3  0  0
    0.6822    1.4182   -0.9452 N   0  0  0  0  0  0  0  0  0  4  0  0
   -1.8268   -0.4234    0.4248 H   0  0  0  0  0  0  0  0  0  5  0  0
    0.0032   -1.6488   -0.5613 H   0  0  0  0  0  0  0  0  0  6  0  0
    0.9753   -1.1632    0.8231 H   0  0  0  0  0  0  0  0  0  7  0  0
   -0.9310    0.0052    1.6279 H   0  0  0  0  0  0  0  0  0  8  0  0
  1  5  1  0
  1  2  1  0
  1  8  1  0
  2  7  1  0
  2  6  1  0
  2  3  1  0
  3  4  1  0
M  RAD  1   3   3
M  END
>  <rmg_smiles>  (2) 
[N][C]CN

>  <rmg_adjacency_list>  (2) 
1 N u0 p1 c0 {3,S} {7,S} {8,S}
2 N u0 p2 c0 {4,S}
3 C u0 p0 c0 {1,S} {4,S} {5,S} {6,S}
4 C u0 p1 c0 {2,S} {3,S}
5 H u0 p0 c0 {3,S}
6 H u0 p0 c0 {3,S}
7 H u0 p0 c0 {1,S}
8 H u0 p0 c0 {1,S}


>  <multiplicity>  (2) 
1

>  <reaction>  (2) 
rxn_3239

>  <type>  (2) 
r2h

>  <role_mapnums>  (2) 
{"r2h_a": 1, "r2h_h": 8}

>  <role_mapidx>  (2) 
{"r2h_a": 0, "r2h_h": 7}

>  <ordered_mapped_smiles>  (2) 
[N:1]([C:2]([C:3][NH2:4])([H:6])[H:7])([H:5])[H:8]

>  <mol_properties>  (2) 
{"0": {"label": "acceptor", "atom_type": "N3s"}, "7": {"label": "a_hydrogen", "atom_type": "H0"}}

>  <level_of_theory>  (2) 
wb97xd/def2tzvp

>  <lot_method>  (2) 
wb97xd

>  <lot_basis>  (2) 
def2tzvp

>  <spin_multiplicity>  (2) 
1.0

>  <optical_isomers>  (2) 
1.0

>  <modes>  (2) 
IdealGasTranslation(mass=(56.0374, 'amu')),         NonlinearRotor(             inertia = ([16.5185, 105.395, 116.141

>  <frequency_value>  (2) 
unknown

>  <frequency_units>  (2) 
unknown

>  <frequency_list>  (2) 
unknown

>  <arkane_path>  (2) 
/home/calvin/Dropbox/PersonalFolders/Calvin/ATLAS_Converged/NonRMG/rxn_3239/output/Species/rxn_3239_p1_NCCtN/arkane/output.py

>  <path_exists>  (2) 
True

>  <E0_value>  (2) 
-493707.24096395954

>  <E0_units>  (2) 
kJ/mol

>  <thermo_class>  (2) 
NASA

>  <Cp0_value>  (2) 
33.257888

>  <Cp0_units>  (2) 
J/(mol*K)

>  <CpInf_value>  (2) 
182.918384

>  <CpInf_units>  (2) 
J/(mol*K)

>  <Tmin_value>  (2) 
10.0

>  <Tmin_units>  (2) 
K

>  <Tmax_value>  (2) 
3000.0

>  <Tmax_units>  (2) 
K

>  <polynomials>  (2) 
[{"name": "polynomial1", "class": "NASAPolynomial", "Tmin_value": 10.0, "Tmin_units": "K", "Tmax_value": 310.3656944426032, "Tmax_units": "K", "coeffs": [3.9731943208296037, 0.002034998905401934, 9.475709370659397e-05, -2.3009470252826854e-07, 1.8817978896599532e-10, -59379266.29095806, 8.166466583720501]}, {"name": "polynomial2", "class": "NASAPolynomial", "Tmin_value": 310.3656944426032, "Tmin_units": "K", "Tmax_value": 3000.0, "Tmax_units": "K", "coeffs": [2.222751666825024, 0.024594558995586543, -1.4272560220765838e-05, 4.0994905264842876e-09, -4.624224001756621e-13, -59379157.63460226, 14.563329871704575]}]

>  <H298_value>  (2) 
-117995.39622498966

>  <H298_units>  (2) 
kcal/mol

>  <S298_value>  (2) 
67.48007386059012

>  <S298_units>  (2) 
cal/(mol*K)

>  <Cp_T_value_list>  (2) 
[16.739297051439777, 19.926703272151446, 22.72455293853158, 25.171796492782516, 29.159257216543025, 32.15661505552977, 36.755563782360284, 39.185316788338156, 40.47748472918174]

>  <Cp_T_units>  (2) 
cal/(mol*K)

>  <T_list>  (2) 
[300.0, 400.0, 500.0, 600.0, 800.0, 1000.0, 1500.0, 2000.0, 2400.0]

>  <T_units>  (2) 
K

>  <yaml_path>  (2) 
/home/calvin/Dropbox/PersonalFolders/Calvin/ATLAS_Converged/NonRMG/rxn_3239/output/Species/rxn_3239_p1_NCCtN/rxn_3239_p1_NCCtN.yml

>  <frequencies_cm1>  (2) 
[216.01475721123998, 261.31625936728, 391.90571919772, 575.1100205500001, 821.9438078774, 892.22053564228, 915.49274889176, 1117.7804024483198, 1189.6365368368, 1359.3815469618798, 1375.3816227574798, 1458.4996130707598, 1659.1529241211601, 2352.78024430904, 3046.929455381239, 3089.3536906882, 3509.5925913162396, 3590.1972650023995]

>  <ZPE_kJmol>  (2) 
166.41668883231094

>  <E_elec_kJmol>  (2) 
-493873.6576527919

>  <E0_minus_Eelec_plus_ZPE_kJmol>  (2) 
0.0

>  <rxn>  (2) 
rxn_3239

>  <species_type>  (2) 
p0

>  <species_folder>  (2) 
rxn_3239_p1_NCCtN

>  <frequencies_cm1_list>  (2) 
[216.01475721123998, 261.31625936728, 391.90571919772, 575.1100205500001, 821.9438078774, 892.22053564228, 915.49274889176, 1117.7804024483198, 1189.6365368368, 1359.3815469618798, 1375.3816227574798, 1458.4996130707598, 1659.1529241211601, 2352.78024430904, 3046.929455381239, 3089.3536906882, 3509.5925913162396, 3590.1972650023995]

>  <E0_kJmol>  (2) 
-493707

>  <H298_kJmol>  (2) 
-493693

$$$$

     RDKit          3D

 14 12  0  0  0  0  0  0  0  0999 V2000
   -0.4076   -2.3937   -0.1650 N   0  0  0  0  0  2  0  0  0  1  0  0
    0.7969   -2.4691   -0.9750 C   0  0  0  0  0  0  0  0  0  2  0  0
    1.1356   -1.2091   -1.6525 C   0  0  0  0  0  0  0  0  0  3  0  0
    1.3477   -0.1814   -2.1172 N   0  0  0  0  0  0  0  0  0  4  0  0
   -1.1613   -2.0231   -0.7473 H   0  0  0  0  0  0  0  0  0  5  0  0
    0.6687   -3.2485   -1.7334 H   0  0  0  0  0  0  0  0  0  6  0  0
    1.6408   -2.7629   -0.3489 H   0  0  0  0  0  0  0  0  0  7  0  0
   -1.6747    0.6370   -0.2974 O   0  0  0  0  0  0  0  0  0  8  0  0
   -0.7940    0.9237    0.4534 C   0  0  0  0  0  0  0  0  0  9  0  0
   -0.4810    2.3030    0.8350 C   0  0  0  0  0  0  0  0  0 10  0  0
   -0.2257    3.3736    1.1574 N   0  0  0  0  0  0  0  0  0 11  0  0
    0.0795   -0.1770    1.1105 C   0  0  0  0  0  0  0  0  0 12  0  0
    0.9336    0.0355    1.8947 O   0  0  0  0  0  0  0  0  0 13  0  0
   -0.2194   -1.3348    0.6575 H   0  0  0  0  0  0  0  0  0 14  0  0
  1  5  1  0
  1  2  1  0
  2  7  1  0
  2  6  1  0
  2  3  1  0
  3  4  1  0
  8  9  1  0
  9 10  1  0
  9 12  1  0
 10 11  1  0
 12 14  1  0
 12 13  1  0
M  RAD  1   1   2
M  END
>  <rmg_smiles>  (3) 
[N][C][C]([CH][O])[O].[N][C]C[NH]

>  <rmg_adjacency_list>  (3) 
multiplicity 2
1  O u0 p2 c0 {7,S}
2  O u0 p2 c0 {8,S}
3  N u1 p1 c0 {6,S} {14,S}
4  N u0 p2 c0 {9,S}
5  N u0 p2 c0 {10,S}
6  C u0 p0 c0 {3,S} {9,S} {11,S} {12,S}
7  C u0 p0 c0 {1,S} {8,S} {10,S}
8  C u0 p0 c0 {2,S} {7,S} {13,S}
9  C u0 p1 c0 {4,S} {6,S}
10 C u0 p1 c0 {5,S} {7,S}
11 H u0 p0 c0 {6,S}
12 H u0 p0 c0 {6,S}
13 H u0 p0 c0 {8,S}
14 H u0 p0 c0 {3,S}


>  <multiplicity>  (3) 
2

>  <reaction>  (3) 
rxn_3239

>  <type>  (3) 
ts

>  <role_mapnums>  (3) 
{"*2": 14, "*1": 12, "*3": 1, "*0": 9, "*4": 2}

>  <role_mapidx>  (3) 
{"*2": 13, "*1": 11, "*3": 0, "*0": 8, "*4": 1}

>  <ordered_mapped_smiles>  (3) 
[N:1]([C:2]([CH2:3][NH2:4])([H:6])[H:7])[H:5].[OH:8][CH:9]([CH2:10][NH2:11])[CH:12]([OH:13])[H:14]

>  <mol_properties>  (3) 
{"0": {"label": "*3", "atom_type": "N3s"}, "1": {"label": "*4", "atom_type": "Cs"}, "8": {"label": "*0", "atom_type": "Cs"}, "11": {"label": "*1", "atom_type": "Cs"}, "13": {"label": "*2", "atom_type": "H0"}}

>  <level_of_theory>  (3) 
wb97xd/def2tzvp

>  <lot_method>  (3) 
wb97xd

>  <lot_basis>  (3) 
def2tzvp

>  <spin_multiplicity>  (3) 
2.0

>  <optical_isomers>  (3) 
2.0

>  <modes>  (3) 
IdealGasTranslation(mass=(138.03, 'amu')),         NonlinearRotor(             inertia = ([241.527, 635.194, 673.381

>  <frequency_value>  (3) 
-1703.16

>  <frequency_units>  (3) 
cm^-1

>  <frequency_list>  (3) 
unknown

>  <arkane_path>  (3) 
/home/calvin/Dropbox/PersonalFolders/Calvin/ATLAS_Converged/NonRMG/rxn_3239/output/rxns/TS0/arkane/output.py

>  <path_exists>  (3) 
True

>  <E0_value>  (3) 
-1332190.0

>  <E0_units>  (3) 
kJ/mol

>  <thermo_class>  (3) 
unknown

>  <Cp0_value>  (3) 
unknown

>  <Cp0_units>  (3) 
unknown

>  <CpInf_value>  (3) 
unknown

>  <CpInf_units>  (3) 
unknown

>  <Tmin_value>  (3) 
unknown

>  <Tmin_units>  (3) 
unknown

>  <Tmax_value>  (3) 
unknown

>  <Tmax_units>  (3) 
unknown

>  <polynomials>  (3) 
unknown

>  <H298_value>  (3) 
unknown

>  <H298_units>  (3) 
unknown

>  <S298_value>  (3) 
unknown

>  <S298_units>  (3) 
unknown

>  <Cp_T_value_list>  (3) 
unknown

>  <Cp_T_units>  (3) 
unknown

>  <T_list>  (3) 
unknown

>  <T_units>  (3) 
unknown

>  <yaml_path>  (3) 
unknown

>  <frequencies_cm1>  (3) 
unknown

>  <ZPE_kJmol>  (3) 
unknown

>  <E_elec_kJmol>  (3) 
unknown

>  <E0_minus_Eelec_plus_ZPE_kJmol>  (3) 
unknown

>  <rxn>  (3) 
unknown

>  <species_type>  (3) 
unknown

>  <species_folder>  (3) 
unknown

>  <frequencies_cm1_list>  (3) 
[]

>  <ts_imag_freq_cm1>  (3) 
-1723.8486

>  <ts_freq_out_path>  (3) 
/home/calvin/Dropbox/PersonalFolders/Calvin/ATLAS_Converged/NonRMG/rxn_3239/output/rxns/TS0/geometry/freq.out

>  <E0_kJmol>  (3) 
-1.33219e+06

>  <H298_kJmol>  (3) 
unknown

$$$$

     RDKit          3D

  6  5  0  0  0  0  0  0  0  0999 V2000
   -0.6991    1.5872    0.3918 O   0  0  0  0  0  1  0  0  0  1  0  0
   -0.1736    0.4606    0.3299 C   0  0  0  0  0  0  0  0  0  2  0  0
    1.2463    0.1827    0.2916 C   0  0  0  0  0  0  0  0  0  3  0  0
    2.3715   -0.0461    0.2609 N   0  0  0  0  0  0  0  0  0  4  0  0
   -0.9996   -0.6616    0.2923 C   0  0  0  0  0  0  0  0  0  5  0  0
   -1.7457   -1.5229    0.2654 O   0  0  0  0  0  0  0  0  0  6  0  0
  1  2  1  0
  2  3  1  0
  2  5  1  0
  3  4  1  0
  5  6  1  0
M  RAD  1   1   2
M  END
>  <rmg_smiles>  (4) 
[N][C][C]([C][O])[O]

>  <rmg_adjacency_list>  (4) 
multiplicity 2
1 O u1 p2 c0 {4,S}
2 O u0 p2 c0 {6,S}
3 N u0 p2 c0 {5,S}
4 C u0 p0 c0 {1,S} {5,S} {6,S}
5 C u0 p1 c0 {3,S} {4,S}
6 C u0 p1 c0 {2,S} {4,S}


>  <multiplicity>  (4) 
2

>  <reaction>  (4) 
rxn_3239

>  <type>  (4) 
r1

>  <role_mapnums>  (4) 
{}

>  <role_mapidx>  (4) 
{}

>  <ordered_mapped_smiles>  (4) 
[O:1][CH:2]([CH2:3][NH2:4])[CH2:5][OH:6]

>  <level_of_theory>  (4) 
wb97xd/def2tzvp

>  <lot_method>  (4) 
wb97xd

>  <lot_basis>  (4) 
def2tzvp

>  <spin_multiplicity>  (4) 
2.0

>  <optical_isomers>  (4) 
1.0

>  <modes>  (4) 
IdealGasTranslation(mass=(81.9929, 'amu')),         NonlinearRotor(             inertia = ([74.011, 177.789, 251.799

>  <frequency_value>  (4) 
unknown

>  <frequency_units>  (4) 
unknown

>  <frequency_list>  (4) 
unknown

>  <arkane_path>  (4) 
/home/calvin/Dropbox/PersonalFolders/Calvin/ATLAS_Converged/NonRMG/rxn_3239/output/Species/rxn_3239_p2_O=Crbr-CtN-rbrsbr-C-sbr=O/arkane/output.py

>  <path_exists>  (4) 
True

>  <E0_value>  (4) 
-838587.4669879117

>  <E0_units>  (4) 
kJ/mol

>  <thermo_class>  (4) 
NASA

>  <Cp0_value>  (4) 
33.257888

>  <Cp0_units>  (4) 
J/(mol*K)

>  <CpInf_value>  (4) 
133.031552

>  <CpInf_units>  (4) 
J/(mol*K)

>  <Tmin_value>  (4) 
10.0

>  <Tmin_units>  (4) 
K

>  <Tmax_value>  (4) 
3000.0

>  <Tmax_units>  (4) 
K

>  <polynomials>  (4) 
[{"name": "polynomial1", "class": "NASAPolynomial", "Tmin_value": 10.0, "Tmin_units": "K", "Tmax_value": 387.61149017840836, "Tmax_units": "K", "coeffs": [3.8307083605984413, 0.013131935179998831, 9.490498576087596e-05, -3.395180709098245e-07, 3.241287575271192e-10, -100858777.06086183, 10.95318279899322]}, {"name": "polynomial2", "class": "NASAPolynomial", "Tmin_value": 387.61149017840836, "Tmin_units": "K", "Tmax_value": 3000.0, "Tmax_units": "K", "coeffs": [5.815218715880053, 0.016676172115216426, -1.1778576890102217e-05, 3.869487240059007e-09, -4.786836008159139e-13, -100859111.37324879, 0.9319335663200703]}]

>  <H298_value>  (4) 
-200423.1540467993

>  <H298_units>  (4) 
kcal/mol

>  <S298_value>  (4) 
76.60373132117422

>  <S298_units>  (4) 
cal/(mol*K)

>  <Cp_T_value_list>  (4) 
[19.415390358578083, 21.534379428902206, 23.175654191018722, 24.550756224203194, 26.63448076592547, 28.026800542445326, 29.736285022321066, 30.50404841684559, 31.00766970602603]

>  <Cp_T_units>  (4) 
cal/(mol*K)

>  <T_list>  (4) 
[300.0, 400.0, 500.0, 600.0, 800.0, 1000.0, 1500.0, 2000.0, 2400.0]

>  <T_units>  (4) 
K

>  <yaml_path>  (4) 
/home/calvin/Dropbox/PersonalFolders/Calvin/ATLAS_Converged/NonRMG/rxn_3239/output/Species/rxn_3239_p2_O=Crbr-CtN-rbrsbr-C-sbr=O/rxn_3239_p2_O=Crbr-CtN-rbrsbr-C-sbr=O.yml

>  <frequencies_cm1>  (4) 
[121.10615310352, 237.65949493987998, 245.98914813304, 347.09177299939995, 550.0798590585999, 567.04817978432, 633.9257498157999, 759.0834242581201, 1164.63384328668, 1477.4456255686398, 2199.34432431896, 2338.4488459461995]

>  <ZPE_kJmol>  (4) 
63.652455067894905

>  <E_elec_kJmol>  (4) 
-838651.1194429796

>  <E0_minus_Eelec_plus_ZPE_kJmol>  (4) 
0.0

>  <rxn>  (4) 
rxn_3239

>  <species_type>  (4) 
p1

>  <species_folder>  (4) 
rxn_3239_p2_O=Crbr-CtN-rbrsbr-C-sbr=O

>  <frequencies_cm1_list>  (4) 
[121.10615310352, 237.65949493987998, 245.98914813304, 347.09177299939995, 550.0798590585999, 567.04817978432, 633.9257498157999, 759.0834242581201, 1164.63384328668, 1477.4456255686398, 2199.34432431896, 2338.4488459461995]

>  <E0_kJmol>  (4) 
-838587

>  <H298_kJmol>  (4) 
-838570

$$$$

     RDKit          3D

  7  6  0  0  0  0  0  0  0  0999 V2000
   -1.3059    0.5497   -0.1304 N   0  0  0  0  0  2  0  0  0  1  0  0
   -0.2700   -0.4288    0.0448 C   0  0  0  0  0  0  0  0  0  2  0  0
    1.1109    0.0669    0.0401 C   0  0  0  0  0  0  0  0  0  3  0  0
    2.1758    0.4925    0.0308 N   0  0  0  0  0  0  0  0  0  4  0  0
   -0.8815    1.4733   -0.2339 H   0  0  0  0  0  0  0  0  0  5  0  0
   -0.3767   -1.1909   -0.7373 H   0  0  0  0  0  0  0  0  0  6  0  0
   -0.4527   -0.9628    0.9858 H   0  0  0  0  0  0  0  0  0  7  0  0
  1  5  1  0
  1  2  1  0
  2  7  1  0
  2  6  1  0
  2  3  1  0
  3  4  1  0
M  RAD  1   1   2
M  END
>  <rmg_smiles>  (5) 
[N][C]C[NH]

>  <rmg_adjacency_list>  (5) 
multiplicity 2
1 N u1 p1 c0 {3,S} {7,S}
2 N u0 p2 c0 {4,S}
3 C u0 p0 c0 {1,S} {4,S} {5,S} {6,S}
4 C u0 p1 c0 {2,S} {3,S}
5 H u0 p0 c0 {3,S}
6 H u0 p0 c0 {3,S}
7 H u0 p0 c0 {1,S}


>  <multiplicity>  (5) 
2

>  <reaction>  (5) 
rxn_3239

>  <type>  (5) 
r2

>  <role_mapnums>  (5) 
{}

>  <role_mapidx>  (5) 
{}

>  <ordered_mapped_smiles>  (5) 
[N:1]([C:2]([CH2:3][NH2:4])([H:6])[H:7])[H:5]

>  <level_of_theory>  (5) 
wb97xd/def2tzvp

>  <lot_method>  (5) 
wb97xd

>  <lot_basis>  (5) 
def2tzvp

>  <spin_multiplicity>  (5) 
2.0

>  <optical_isomers>  (5) 
1.0

>  <modes>  (5) 
IdealGasTranslation(mass=(55.0296, 'amu')),         NonlinearRotor(             inertia = ([14.3798, 101.116, 112.445

>  <frequency_value>  (5) 
unknown

>  <frequency_units>  (5) 
unknown

>  <frequency_list>  (5) 
unknown

>  <arkane_path>  (5) 
/home/calvin/Dropbox/PersonalFolders/Calvin/ATLAS_Converged/NonRMG/rxn_3239/output/Species/rxn_3239_r1_sbr-NH-sbrCCtN/arkane/output.py

>  <path_exists>  (5) 
True

>  <E0_value>  (5) 
-491973.9107065931

>  <E0_units>  (5) 
kJ/mol

>  <thermo_class>  (5) 
NASA

>  <Cp0_value>  (5) 
33.257888

>  <Cp0_units>  (5) 
J/(mol*K)

>  <CpInf_value>  (5) 
157.97496800000002

>  <CpInf_units>  (5) 
J/(mol*K)

>  <Tmin_value>  (5) 
10.0

>  <Tmin_units>  (5) 
K

>  <Tmax_value>  (5) 
3000.0

>  <Tmax_units>  (5) 
K

>  <polynomials>  (5) 
[{"name": "polynomial1", "class": "NASAPolynomial", "Tmin_value": 10.0, "Tmin_units": "K", "Tmax_value": 441.5888552627719, "Tmax_units": "K", "coeffs": [3.8074387231682363, 0.01890513209384672, -2.384570888732855e-05, 4.838233157000235e-08, -4.1393745668634286e-11, -59170793.396980785, 9.226799164772778]}, {"name": "polynomial2", "class": "NASAPolynomial", "Tmin_value": 441.5888552627719, "Tmin_units": "K", "Tmax_value": 3000.0, "Tmax_units": "K", "coeffs": [2.9869977814233555, 0.020949312305084667, -1.2488909357575524e-05, 3.6086756240984913e-09, -4.0428709073473696e-13, -59170668.40878062, 13.109112838271622]}]

>  <H298_value>  (5) 
-117580.92958719996

>  <H298_units>  (5) 
kcal/mol

>  <S298_value>  (5) 
71.21799638955733

>  <S298_units>  (5) 
cal/(mol*K)

>  <Cp_T_value_list>  (5) 
[16.50156041465201, 19.059232907035433, 21.392761081461902, 23.42450687983812, 26.69929489980552, 29.116130872672766, 32.67662417459433, 34.43987147616164, 35.37681819280643]

>  <Cp_T_units>  (5) 
cal/(mol*K)

>  <T_list>  (5) 
[300.0, 400.0, 500.0, 600.0, 800.0, 1000.0, 1500.0, 2000.0, 2400.0]

>  <T_units>  (5) 
K

>  <yaml_path>  (5) 
/home/calvin/Dropbox/PersonalFolders/Calvin/ATLAS_Converged/NonRMG/rxn_3239/output/Species/rxn_3239_r1_sbr-NH-sbrCCtN/rxn_3239_r1_sbr-NH-sbrCCtN.yml

>  <frequencies_cm1>  (5) 
[63.7942936228, 224.96930606852, 349.44028197883995, 587.4774611113199, 879.8668290515999, 884.95526517372, 1044.48906812796, 1212.8469472184, 1240.74064158824, 1356.4012753329998, 1409.47620487128, 2361.53565059204, 2988.3609375869596, 3014.2975411406, 3431.2265548443993]

>  <ZPE_kJmol>  (5) 
125.90626832277542

>  <E_elec_kJmol>  (5) 
-492099.8169749159

>  <E0_minus_Eelec_plus_ZPE_kJmol>  (5) 
0.0

>  <rxn>  (5) 
rxn_3239

>  <species_type>  (5) 
r0

>  <species_folder>  (5) 
rxn_3239_r1_sbr-NH-sbrCCtN

>  <frequencies_cm1_list>  (5) 
[63.7942936228, 224.96930606852, 349.44028197883995, 587.4774611113199, 879.8668290515999, 884.95526517372, 1044.48906812796, 1212.8469472184, 1240.74064158824, 1356.4012753329998, 1409.47620487128, 2361.53565059204, 2988.3609375869596, 3014.2975411406, 3431.2265548443993]

>  <E0_kJmol>  (5) 
-491974

>  <H298_kJmol>  (5) 
-491959

$$$$
