
     RDKit          3D

  7  7  0  0  0  0  0  0  0  0999 V2000
    1.0063   -0.3712   -0.3874 O   0  0  0  0  0  0  0  0  0  1  0  0
    0.2385   -0.8389    0.6091 C   0  0  0  0  0  0  0  0  0  2  0  0
   -0.8466   -0.2072    0.7968 N   0  0  0  0  0  0  0  0  0  3  0  0
   -0.8292    0.8229   -0.1600 N   0  0  0  0  0  0  0  0  0  4  0  0
    0.2619    0.6759   -0.8135 C   0  0  0  0  0  0  0  0  0  5  0  0
    0.5970   -1.7007    1.1719 H   0  0  0  0  0  0  0  0  0  6  0  0
    0.6368    1.2706   -1.6291 H   0  0  0  0  0  0  0  0  0  7  0  0
  1  2  1  0
  1  5  1  0
  2  3  1  0
  2  6  1  0
  3  4  1  0
  4  5  1  0
  5  7  1  0
M  END
>  <rmg_smiles>  (1) 
O1[CH][N][N][CH]1

>  <rmg_adjacency_list>  (1) 
1 O u0 p2 c0 {4,S} {5,S}
2 N u0 p1 c0 {3,S} {4,S}
3 N u0 p1 c0 {2,S} {5,S}
4 C u0 p0 c0 {1,S} {2,S} {6,S}
5 C u0 p0 c0 {1,S} {3,S} {7,S}
6 H u0 p0 c0 {4,S}
7 H u0 p0 c0 {5,S}


>  <multiplicity>  (1) 
1

>  <reaction>  (1) 
rxn_3174

>  <type>  (1) 
r1h

>  <role_mapnums>  (1) 
{"r1h_a": 2, "r1h_h": 6}

>  <role_mapidx>  (1) 
{"r1h_a": 1, "r1h_h": 5}

>  <ordered_mapped_smiles>  (1) 
[O:1]1[CH:2]([H:6])[NH:3][NH:4][CH:5]1[H:7]

>  <mol_properties>  (1) 
{"1": {"label": "donator", "atom_type": "Cs"}, "5": {"label": "d_hydrogen", "atom_type": "H0"}}

>  <level_of_theory>  (1) 
wb97xd/def2tzvp

>  <lot_method>  (1) 
wb97xd

>  <lot_basis>  (1) 
def2tzvp

>  <spin_multiplicity>  (1) 
1.0

>  <optical_isomers>  (1) 
1.0

>  <modes>  (1) 
IdealGasTranslation(mass=(70.0167, 'amu')),         NonlinearRotor(             inertia = ([48.1496, 48.6085, 96.7581

>  <frequency_value>  (1) 
unknown

>  <frequency_units>  (1) 
unknown

>  <frequency_list>  (1) 
unknown

>  <arkane_path>  (1) 
/home/calvin/Dropbox/PersonalFolders/Calvin/ATLAS_Converged/NonRMG/rxn_3174/output/Species/rxn_3174_r2_o1cnnc1/arkane/output.py

>  <path_exists>  (1) 
True

>  <E0_value>  (1) 
-688046.7648432312

>  <E0_units>  (1) 
kJ/mol

>  <thermo_class>  (1) 
NASA

>  <Cp0_value>  (1) 
33.257888

>  <Cp0_units>  (1) 
J/(mol*K)

>  <CpInf_value>  (1) 
157.97496800000002

>  <CpInf_units>  (1) 
J/(mol*K)

>  <Tmin_value>  (1) 
10.0

>  <Tmin_units>  (1) 
K

>  <Tmax_value>  (1) 
3000.0

>  <Tmax_units>  (1) 
K

>  <polynomials>  (1) 
[{"name": "polynomial1", "class": "NASAPolynomial", "Tmin_value": 10.0, "Tmin_units": "K", "Tmax_value": 695.4994996169545, "Tmax_units": "K", "coeffs": [4.181851921256269, -0.013562109868272533, 0.000115269224867956, -1.647833803145799e-07, 7.58250056599767e-11, -82752914.0237186, 7.928418330154418]}, {"name": "polynomial2", "class": "NASAPolynomial", "Tmin_value": 695.4994996169545, "Tmin_units": "K", "Tmax_value": 3000.0, "Tmax_units": "K", "coeffs": [0.5454340187263552, 0.027849523801421333, -1.8251951900405245e-05, 5.577554022875025e-09, -6.437716061271795e-13, -82752903.95383434, 20.587533737439244]}]

>  <H298_value>  (1) 
-164444.403104569

>  <H298_units>  (1) 
kcal/mol

>  <S298_value>  (1) 
62.64748020099773

>  <S298_units>  (1) 
cal/(mol*K)

>  <Cp_T_value_list>  (1) 
[13.219852449872517, 17.080174524025463, 20.585956065019413, 23.39978884236188, 27.295916072907666, 29.960691795811442, 33.42079723379734, 34.888908611091786, 35.76645435914224]

>  <Cp_T_units>  (1) 
cal/(mol*K)

>  <T_list>  (1) 
[300.0, 400.0, 500.0, 600.0, 800.0, 1000.0, 1500.0, 2000.0, 2400.0]

>  <T_units>  (1) 
K

>  <yaml_path>  (1) 
/home/calvin/Dropbox/PersonalFolders/Calvin/ATLAS_Converged/NonRMG/rxn_3174/output/Species/rxn_3174_r2_o1cnnc1/rxn_3174_r2_o1cnnc1.yml

>  <frequencies_cm1>  (1) 
[646.69147552568, 678.01866255552, 857.81693918908, 882.92950450432, 952.67747439956, 955.6234111018398, 1016.68464456728, 1119.4284789251199, 1132.14613573776, 1235.82388009912, 1313.33154340596, 1558.9018054344797, 1581.06843404744, 3263.97426039048, 3269.8249318831195]

>  <ZPE_kJmol>  (1) 
122.40756903126896

>  <E_elec_kJmol>  (1) 
-688169.1724122624

>  <E0_minus_Eelec_plus_ZPE_kJmol>  (1) 
0.0

>  <rxn>  (1) 
rxn_3174

>  <species_type>  (1) 
r1

>  <species_folder>  (1) 
rxn_3174_r2_o1cnnc1

>  <frequencies_cm1_list>  (1) 
[646.69147552568, 678.01866255552, 857.81693918908, 882.92950450432, 952.67747439956, 955.6234111018398, 1016.68464456728, 1119.4284789251199, 1132.14613573776, 1235.82388009912, 1313.33154340596, 1558.9018054344797, 1581.06843404744, 3263.97426039048, 3269.8249318831195]

>  <E0_kJmol>  (1) 
-688047

>  <H298_kJmol>  (1) 
-688035

$$$$

     RDKit          3D

  7  7  0  0  0  0  0  0  0  0999 V2000
    0.9127    1.4446    1.0565 N   0  0  0  0  0  0  0  0  0  1  0  0
    0.3328    0.5636    0.3832 C   0  0  0  0  0  0  0  0  0  2  0  0
    0.4224   -0.7637    0.6445 O   0  0  0  0  0  0  0  0  0  3  0  0
   -0.3421   -1.4104   -0.3033 N   0  0  0  0  0  0  0  0  0  4  0  0
   -0.8472   -0.6013   -1.0631 N   0  0  0  0  0  0  0  0  0  5  0  0
   -0.4726    0.6809   -0.7028 O   0  0  0  0  0  0  0  0  0  6  0  0
    0.6974    2.3975    0.6998 H   0  0  0  0  0  0  0  0  0  7  0  0
  1  2  1  0
  1  7  1  0
  2  3  1  0
  2  6  1  0
  3  4  1  0
  4  5  1  0
  5  6  1  0
M  END
>  <rmg_smiles>  (2) 
[NH][C]1O[N][N]O1

>  <rmg_adjacency_list>  (2) 
1 O u0 p2 c0 {3,S} {6,S}
2 O u0 p2 c0 {4,S} {6,S}
3 N u0 p1 c0 {1,S} {4,S}
4 N u0 p1 c0 {2,S} {3,S}
5 N u0 p1 c0 {6,S} {7,S}
6 C u0 p0 c0 {1,S} {2,S} {5,S}
7 H u0 p0 c0 {5,S}


>  <multiplicity>  (2) 
1

>  <reaction>  (2) 
rxn_3174

>  <type>  (2) 
r2h

>  <role_mapnums>  (2) 
{"r2h_a": 1, "r2h_h": 7}

>  <role_mapidx>  (2) 
{"r2h_a": 0, "r2h_h": 6}

>  <ordered_mapped_smiles>  (2) 
[NH:1]([CH:2]1[O:3][NH:4][NH:5][O:6]1)[H:7]

>  <mol_properties>  (2) 
{"0": {"label": "acceptor", "atom_type": "N3s"}, "6": {"label": "a_hydrogen", "atom_type": "H0"}}

>  <level_of_theory>  (2) 
wb97xd/def2tzvp

>  <lot_method>  (2) 
wb97xd

>  <lot_basis>  (2) 
def2tzvp

>  <spin_multiplicity>  (2) 
1.0

>  <optical_isomers>  (2) 
1.0

>  <modes>  (2) 
IdealGasTranslation(mass=(87.0069, 'amu')),         NonlinearRotor(             inertia = ([48.8575, 120.721, 169.578

>  <frequency_value>  (2) 
unknown

>  <frequency_units>  (2) 
unknown

>  <frequency_list>  (2) 
unknown

>  <arkane_path>  (2) 
/home/calvin/Dropbox/PersonalFolders/Calvin/ATLAS_Converged/NonRMG/rxn_3174/output/Species/rxn_3174_p1_N=c1onno1/arkane/output.py

>  <path_exists>  (2) 
True

>  <E0_value>  (2) 
-927513.3956974436

>  <E0_units>  (2) 
kJ/mol

>  <thermo_class>  (2) 
NASA

>  <Cp0_value>  (2) 
33.257888

>  <Cp0_units>  (2) 
J/(mol*K)

>  <CpInf_value>  (2) 
157.97496800000002

>  <CpInf_units>  (2) 
J/(mol*K)

>  <Tmin_value>  (2) 
10.0

>  <Tmin_units>  (2) 
K

>  <Tmax_value>  (2) 
3000.0

>  <Tmax_units>  (2) 
K

>  <polynomials>  (2) 
[{"name": "polynomial1", "class": "NASAPolynomial", "Tmin_value": 10.0, "Tmin_units": "K", "Tmax_value": 594.5510705426203, "Tmax_units": "K", "coeffs": [4.064128165333628, -0.006464132682369532, 0.00012609118943386684, -2.2452471871589397e-07, 1.2482881080850414e-10, -111554092.36102824, 9.73736041625877]}, {"name": "polynomial2", "class": "NASAPolynomial", "Tmin_value": 594.5510705426203, "Tmin_units": "K", "Tmax_value": 3000.0, "Tmax_units": "K", "coeffs": [2.6619435988700717, 0.02700063330274151, -1.8966063744434276e-05, 6.109629991067157e-09, -7.351884988814937e-13, -111554350.36753283, 12.201082878024012]}]

>  <H298_value>  (2) 
-221677.73393283132

>  <H298_units>  (2) 
kcal/mol

>  <S298_value>  (2) 
69.21240690289005

>  <S298_units>  (2) 
cal/(mol*K)

>  <Cp_T_value_list>  (2) 
[16.736335365541446, 20.824137553247738, 24.027452944596273, 26.348252322457366, 29.711055843773885, 31.936305555783512, 34.552273976473494, 35.596788664173474, 36.33939231381346]

>  <Cp_T_units>  (2) 
cal/(mol*K)

>  <T_list>  (2) 
[300.0, 400.0, 500.0, 600.0, 800.0, 1000.0, 1500.0, 2000.0, 2400.0]

>  <T_units>  (2) 
K

>  <yaml_path>  (2) 
/home/calvin/Dropbox/PersonalFolders/Calvin/ATLAS_Converged/NonRMG/rxn_3174/output/Species/rxn_3174_p1_N=c1onno1/rxn_3174_p1_N=c1onno1.yml

>  <frequencies_cm1>  (2) 
[208.89369343439998, 445.44073675243993, 644.52150816456, 714.2214091625599, 757.75122910604, 783.81143839544, 819.0802749989599, 941.40875148944, 996.4545058145599, 1049.54316932348, 1062.20589025356, 1273.50302854996, 1598.9500638207198, 1829.7357064552798, 3558.0254387782]

>  <ZPE_kJmol>  (2) 
99.78979924741076

>  <E_elec_kJmol>  (2) 
-927613.1854966908

>  <E0_minus_Eelec_plus_ZPE_kJmol>  (2) 
0.0

>  <rxn>  (2) 
rxn_3174

>  <species_type>  (2) 
p0

>  <species_folder>  (2) 
rxn_3174_p1_N=c1onno1

>  <frequencies_cm1_list>  (2) 
[208.89369343439998, 445.44073675243993, 644.52150816456, 714.2214091625599, 757.75122910604, 783.81143839544, 819.0802749989599, 941.40875148944, 996.4545058145599, 1049.54316932348, 1062.20589025356, 1273.50302854996, 1598.9500638207198, 1829.7357064552798, 3558.0254387782]

>  <E0_kJmol>  (2) 
-927513

>  <H298_kJmol>  (2) 
-927500

$$$$

     RDKit          3D

 13 13  0  0  0  0  0  0  0  0999 V2000
    0.8430   -0.5675    1.3494 N   0  0  0  0  0  0  0  0  0  1  0  0
    0.2631   -1.4486    0.6761 C   0  0  0  0  0  0  0  0  0  2  0  0
    0.3526   -2.7758    0.9374 O   0  0  0  0  0  0  0  0  0  3  0  0
   -0.4119   -3.4225   -0.0104 N   0  0  0  0  0  0  0  0  0  4  0  0
   -0.9170   -2.6134   -0.7702 N   0  0  0  0  0  0  0  0  0  5  0  0
   -0.5423   -1.3313   -0.4098 O   0  0  0  0  0  0  0  0  0  6  0  0
    0.8958    2.0936   -0.7901 O   0  0  0  0  0  0  0  0  0  7  0  0
    0.1279    1.6259    0.2064 C   0  0  0  0  0  3  0  0  0  8  0  0
   -0.9572    2.2576    0.3941 N   0  0  0  0  0  0  0  0  0  9  0  0
   -0.9398    3.2878   -0.5627 N   0  0  0  0  0  0  0  0  0 10  0  0
    0.1513    3.1407   -1.2161 C   0  0  0  0  0  0  0  0  0 11  0  0
    0.6083    0.4711    0.9606 H   0  0  0  0  0  0  0  0  0 12  0  0
    0.5263    3.7354   -2.0317 H   0  0  0  0  0  0  0  0  0 13  0  0
  1  2  1  0
  1 12  1  0
  2  3  1  0
  2  6  1  0
  3  4  1  0
  4  5  1  0
  5  6  1  0
  7 11  1  0
  7  8  1  0
  8  9  1  0
  9 10  1  0
 10 11  1  0
 11 13  1  0
M  RAD  1   8   2
M  END
>  <rmg_smiles>  (3) 
O1[CH][N][N][C]1.[NH][C]1O[N][N]O1

>  <rmg_adjacency_list>  (3) 
multiplicity 2
1  O u0 p2 c0 {5,S} {9,S}
2  O u0 p2 c0 {6,S} {9,S}
3  O u0 p2 c0 {10,S} {11,S}
4  N u0 p1 c0 {7,S} {10,S}
5  N u0 p1 c0 {1,S} {6,S}
6  N u0 p1 c0 {2,S} {5,S}
7  N u0 p1 c0 {4,S} {11,S}
8  N u0 p1 c0 {9,S} {13,S}
9  C u0 p0 c0 {1,S} {2,S} {8,S}
10 C u0 p0 c0 {3,S} {4,S} {12,S}
11 C u1 p1 c0 {3,S} {7,S}
12 H u0 p0 c0 {10,S}
13 H u0 p0 c0 {8,S}


>  <multiplicity>  (3) 
2

>  <reaction>  (3) 
rxn_3174

>  <type>  (3) 
ts

>  <role_mapnums>  (3) 
{"*2": 12, "*1": 8, "*3": 1, "*0": 2, "*4": 7}

>  <role_mapidx>  (3) 
{"*2": 11, "*1": 7, "*3": 0, "*0": 1, "*4": 6}

>  <ordered_mapped_smiles>  (3) 
[NH:1]([CH:2]1[O:3][NH:4][NH:5][O:6]1)[H:12].[O:7]1[CH:8][NH:9][NH:10][CH:11]1[H:13]

>  <mol_properties>  (3) 
{"0": {"label": "*3", "atom_type": "N3s"}, "1": {"label": "*0", "atom_type": "Cs"}, "6": {"label": "*4", "atom_type": "O2s"}, "7": {"label": "*1", "atom_type": "C2s"}, "11": {"label": "*2", "atom_type": "H0"}}

>  <level_of_theory>  (3) 
wb97xd/def2tzvp

>  <lot_method>  (3) 
wb97xd

>  <lot_basis>  (3) 
def2tzvp

>  <spin_multiplicity>  (3) 
2.0

>  <optical_isomers>  (3) 
2.0

>  <modes>  (3) 
IdealGasTranslation(mass=(156.016, 'amu')),         NonlinearRotor(             inertia = ([148.995, 963.122, 1014.78

>  <frequency_value>  (3) 
-1201.64

>  <frequency_units>  (3) 
cm^-1

>  <frequency_list>  (3) 
unknown

>  <arkane_path>  (3) 
/home/calvin/Dropbox/PersonalFolders/Calvin/ATLAS_Converged/NonRMG/rxn_3174/output/rxns/TS0/arkane/output.py

>  <path_exists>  (3) 
True

>  <E0_value>  (3) 
-1613740.0

>  <E0_units>  (3) 
kJ/mol

>  <thermo_class>  (3) 
unknown

>  <Cp0_value>  (3) 
unknown

>  <Cp0_units>  (3) 
unknown

>  <CpInf_value>  (3) 
unknown

>  <CpInf_units>  (3) 
unknown

>  <Tmin_value>  (3) 
unknown

>  <Tmin_units>  (3) 
unknown

>  <Tmax_value>  (3) 
unknown

>  <Tmax_units>  (3) 
unknown

>  <polynomials>  (3) 
unknown

>  <H298_value>  (3) 
unknown

>  <H298_units>  (3) 
unknown

>  <S298_value>  (3) 
unknown

>  <S298_units>  (3) 
unknown

>  <Cp_T_value_list>  (3) 
unknown

>  <Cp_T_units>  (3) 
unknown

>  <T_list>  (3) 
unknown

>  <T_units>  (3) 
unknown

>  <yaml_path>  (3) 
unknown

>  <frequencies_cm1>  (3) 
unknown

>  <ZPE_kJmol>  (3) 
unknown

>  <E_elec_kJmol>  (3) 
unknown

>  <E0_minus_Eelec_plus_ZPE_kJmol>  (3) 
unknown

>  <rxn>  (3) 
unknown

>  <species_type>  (3) 
unknown

>  <species_folder>  (3) 
unknown

>  <frequencies_cm1_list>  (3) 
[]

>  <ts_imag_freq_cm1>  (3) 
-1216.2333

>  <ts_freq_out_path>  (3) 
/home/calvin/Dropbox/PersonalFolders/Calvin/ATLAS_Converged/NonRMG/rxn_3174/output/rxns/TS0/geometry/freq.out

>  <E0_kJmol>  (3) 
-1.61374e+06

>  <H298_kJmol>  (3) 
unknown

$$$$

     RDKit          3D

  6  6  0  0  0  0  0  0  0  0999 V2000
    0.0431   -1.0327   -0.4852 O   0  0  0  0  0  0  0  0  0  1  0  0
    0.7220    0.0059    0.0697 C   0  0  0  0  0  0  0  0  0  2  0  0
   -0.0231    1.0090    0.3494 N   0  0  0  0  0  0  0  0  0  3  0  0
   -1.3343    0.6423   -0.0426 N   0  0  0  0  0  0  0  0  0  4  0  0
   -1.1906   -0.5242   -0.5000 C   0  0  0  0  0  3  0  0  0  5  0  0
    1.7830   -0.1003    0.2198 H   0  0  0  0  0  0  0  0  0  6  0  0
  1  2  1  0
  1  5  1  0
  2  3  1  0
  2  6  1  0
  3  4  1  0
  4  5  1  0
M  RAD  1   5   2
M  END
>  <rmg_smiles>  (4) 
O1[CH][N][N][C]1

>  <rmg_adjacency_list>  (4) 
multiplicity 2
1 O u0 p2 c0 {4,S} {5,S}
2 N u0 p1 c0 {3,S} {4,S}
3 N u0 p1 c0 {2,S} {5,S}
4 C u0 p0 c0 {1,S} {2,S} {6,S}
5 C u1 p1 c0 {1,S} {3,S}
6 H u0 p0 c0 {4,S}


>  <multiplicity>  (4) 
2

>  <reaction>  (4) 
rxn_3174

>  <type>  (4) 
r1

>  <role_mapnums>  (4) 
{}

>  <role_mapidx>  (4) 
{}

>  <ordered_mapped_smiles>  (4) 
[O:1]1[CH:2]([H:6])[NH:3][NH:4][CH:5]1

>  <level_of_theory>  (4) 
wb97xd/def2tzvp

>  <lot_method>  (4) 
wb97xd

>  <lot_basis>  (4) 
def2tzvp

>  <spin_multiplicity>  (4) 
2.0

>  <optical_isomers>  (4) 
1.0

>  <modes>  (4) 
IdealGasTranslation(mass=(69.0089, 'amu')),         NonlinearRotor(             inertia = ([43.1189, 49.1924, 92.3114

>  <frequency_value>  (4) 
unknown

>  <frequency_units>  (4) 
unknown

>  <frequency_list>  (4) 
unknown

>  <arkane_path>  (4) 
/home/calvin/Dropbox/PersonalFolders/Calvin/ATLAS_Converged/NonRMG/rxn_3174/output/Species/rxn_3174_p2_O1C=NN=sbr-C-sbr1/arkane/output.py

>  <path_exists>  (4) 
True

>  <E0_value>  (4) 
-686227.9419467488

>  <E0_units>  (4) 
kJ/mol

>  <thermo_class>  (4) 
NASA

>  <Cp0_value>  (4) 
33.257888

>  <Cp0_units>  (4) 
J/(mol*K)

>  <CpInf_value>  (4) 
133.031552

>  <CpInf_units>  (4) 
J/(mol*K)

>  <Tmin_value>  (4) 
10.0

>  <Tmin_units>  (4) 
K

>  <Tmax_value>  (4) 
3000.0

>  <Tmax_units>  (4) 
K

>  <polynomials>  (4) 
[{"name": "polynomial1", "class": "NASAPolynomial", "Tmin_value": 10.0, "Tmin_units": "K", "Tmax_value": 674.4640548782448, "Tmax_units": "K", "coeffs": [4.148568972673787, -0.011477998852059251, 0.00010405155893182073, -1.5572497192254363e-07, 7.462136263676355e-11, -82534158.97439003, 9.221917410586743]}, {"name": "polynomial2", "class": "NASAPolynomial", "Tmin_value": 674.4640548782448, "Tmin_units": "K", "Tmax_value": 3000.0, "Tmax_units": "K", "coeffs": [1.5410905778085573, 0.02319244420363553, -1.5769987363396248e-05, 4.932407595746517e-09, -5.785134917995277e-13, -82534244.09649014, 17.536058696399202]}]

>  <H298_value>  (4) 
-164009.68973991944

>  <H298_units>  (4) 
kcal/mol

>  <S298_value>  (4) 
65.23958097664878

>  <S298_units>  (4) 
cal/(mol*K)

>  <Cp_T_value_list>  (4) 
[12.856567136038302, 16.19479410998975, 19.1182638379178, 21.371741275401714, 24.424134281904713, 26.464506368609804, 28.94452990141327, 29.905618538032666, 30.522980807656793]

>  <Cp_T_units>  (4) 
cal/(mol*K)

>  <T_list>  (4) 
[300.0, 400.0, 500.0, 600.0, 800.0, 1000.0, 1500.0, 2000.0, 2400.0]

>  <T_units>  (4) 
K

>  <yaml_path>  (4) 
/home/calvin/Dropbox/PersonalFolders/Calvin/ATLAS_Converged/NonRMG/rxn_3174/output/Species/rxn_3174_p2_O1C=NN=sbr-C-sbr1/rxn_3174_p2_O1C=NN=sbr-C-sbr1.yml

>  <frequencies_cm1>  (4) 
[599.6938279955999, 646.89061809996, 863.1113848708001, 876.7560847016399, 933.7589298429599, 946.87487180416, 1066.01706710616, 1143.00283952868, 1275.81033561748, 1517.69302652916, 1571.39971871688, 3265.37512539576]

>  <ZPE_kJmol>  (4) 
87.96373479514544

>  <E_elec_kJmol>  (4) 
-686315.9056815439

>  <E0_minus_Eelec_plus_ZPE_kJmol>  (4) 
0.0

>  <rxn>  (4) 
rxn_3174

>  <species_type>  (4) 
p1

>  <species_folder>  (4) 
rxn_3174_p2_O1C=NN=sbr-C-sbr1

>  <frequencies_cm1_list>  (4) 
[599.6938279955999, 646.89061809996, 863.1113848708001, 876.7560847016399, 933.7589298429599, 946.87487180416, 1066.01706710616, 1143.00283952868, 1275.81033561748, 1517.69302652916, 1571.39971871688, 3265.37512539576]

>  <E0_kJmol>  (4) 
-686228

>  <H298_kJmol>  (4) 
-686217

$$$$

     RDKit          3D

  6  6  0  0  0  0  0  0  0  0999 V2000
    1.9594    0.0134   -0.3734 N   0  0  0  0  0  2  0  0  0  1  0  0
    0.7437    0.0051   -0.0788 C   0  0  0  0  0  0  0  0  0  2  0  0
   -0.0745    1.0868    0.0233 O   0  0  0  0  0  0  0  0  0  3  0  0
   -1.3223    0.5972    0.3682 N   0  0  0  0  0  0  0  0  0  4  0  0
   -1.2899   -0.6150    0.4676 N   0  0  0  0  0  0  0  0  0  5  0  0
   -0.0165   -1.0874    0.2015 O   0  0  0  0  0  0  0  0  0  6  0  0
  1  2  1  0
  2  3  1  0
  2  6  1  0
  3  4  1  0
  4  5  1  0
  5  6  1  0
M  RAD  1   1   2
M  END
>  <rmg_smiles>  (5) 
[N][C]1O[N][N]O1

>  <rmg_adjacency_list>  (5) 
multiplicity 2
1 O u0 p2 c0 {3,S} {6,S}
2 O u0 p2 c0 {4,S} {6,S}
3 N u0 p1 c0 {1,S} {4,S}
4 N u0 p1 c0 {2,S} {3,S}
5 N u1 p2 c0 {6,S}
6 C u0 p0 c0 {1,S} {2,S} {5,S}


>  <multiplicity>  (5) 
2

>  <reaction>  (5) 
rxn_3174

>  <type>  (5) 
r2

>  <role_mapnums>  (5) 
{}

>  <role_mapidx>  (5) 
{}

>  <ordered_mapped_smiles>  (5) 
[NH:1][CH:2]1[O:3][NH:4][NH:5][O:6]1

>  <level_of_theory>  (5) 
wb97xd/def2tzvp

>  <lot_method>  (5) 
wb97xd

>  <lot_basis>  (5) 
def2tzvp

>  <spin_multiplicity>  (5) 
2.0

>  <optical_isomers>  (5) 
1.0

>  <modes>  (5) 
IdealGasTranslation(mass=(85.999, 'amu')),         NonlinearRotor(             inertia = ([48.4503, 114.569, 163.019

>  <frequency_value>  (5) 
unknown

>  <frequency_units>  (5) 
unknown

>  <frequency_list>  (5) 
unknown

>  <arkane_path>  (5) 
/home/calvin/Dropbox/PersonalFolders/Calvin/ATLAS_Converged/NonRMG/rxn_3174/output/Species/rxn_3174_r1_sbr-N-sbr=c1onno1/arkane/output.py

>  <path_exists>  (5) 
True

>  <E0_value>  (5) 
-925766.1233507326

>  <E0_units>  (5) 
kJ/mol

>  <thermo_class>  (5) 
NASA

>  <Cp0_value>  (5) 
33.257888

>  <Cp0_units>  (5) 
J/(mol*K)

>  <CpInf_value>  (5) 
133.031552

>  <CpInf_units>  (5) 
J/(mol*K)

>  <Tmin_value>  (5) 
10.0

>  <Tmin_units>  (5) 
K

>  <Tmax_value>  (5) 
3000.0

>  <Tmax_units>  (5) 
K

>  <polynomials>  (5) 
[{"name": "polynomial1", "class": "NASAPolynomial", "Tmin_value": 10.0, "Tmin_units": "K", "Tmax_value": 616.0864984642515, "Tmax_units": "K", "coeffs": [3.94812055354869, 0.002870632430470056, 6.601813711413239e-05, -1.1874693803665765e-07, 6.345849341330536e-11, -111343943.32258263, 9.377120967783604]}, {"name": "polynomial2", "class": "NASAPolynomial", "Tmin_value": 616.0864984642515, "Tmin_units": "K", "Tmax_value": 3000.0, "Tmax_units": "K", "coeffs": [2.4544566455499175, 0.02517036301302165, -1.8957852591200607e-05, 6.406820502487897e-09, -7.999640326918053e-13, -111343998.43927236, 13.91872622116066]}]

>  <H298_value>  (5) 
-221260.06538606877

>  <H298_units>  (5) 
kcal/mol

>  <S298_value>  (5) 
69.02430482099071

>  <S298_units>  (5) 
cal/(mol*K)

>  <Cp_T_value_list>  (5) 
[16.01447807468723, 19.24412536395936, 21.88065311931888, 23.870148628394773, 26.6491311769416, 28.365034926557463, 30.06252774055981, 30.64056177383133, 31.185424153668]

>  <Cp_T_units>  (5) 
cal/(mol*K)

>  <T_list>  (5) 
[300.0, 400.0, 500.0, 600.0, 800.0, 1000.0, 1500.0, 2000.0, 2400.0]

>  <T_units>  (5) 
K

>  <yaml_path>  (5) 
/home/calvin/Dropbox/PersonalFolders/Calvin/ATLAS_Converged/NonRMG/rxn_3174/output/Species/rxn_3174_r1_sbr-N-sbr=c1onno1/rxn_3174_r1_sbr-N-sbr=c1onno1.yml

>  <frequencies_cm1>  (5) 
[203.66105062056, 421.06293886643994, 625.6235645639199, 691.3131461350399, 746.0704870767199, 784.21659052932, 934.89884940608, 1008.3206564475199, 1041.0761764239198, 1163.2398452667198, 1617.8480074213599, 1768.29678879724]

>  <ZPE_kJmol>  (5) 
65.82829353267302

>  <E_elec_kJmol>  (5) 
-925831.9516442652

>  <E0_minus_Eelec_plus_ZPE_kJmol>  (5) 
0.0

>  <rxn>  (5) 
rxn_3174

>  <species_type>  (5) 
r0

>  <species_folder>  (5) 
rxn_3174_r1_sbr-N-sbr=c1onno1

>  <frequencies_cm1_list>  (5) 
[203.66105062056, 421.06293886643994, 625.6235645639199, 691.3131461350399, 746.0704870767199, 784.21659052932, 934.89884940608, 1008.3206564475199, 1041.0761764239198, 1163.2398452667198, 1617.8480074213599, 1768.29678879724]

>  <E0_kJmol>  (5) 
-925766

>  <H298_kJmol>  (5) 
-925752

$$$$
