
     RDKit          3D

 21 21  0  0  0  0  0  0  0  0999 V2000
   -1.5414    1.3837   -1.7664 C   0  0  0  0  0  0  0  0  0  1  0  0
   -1.3089    1.0495   -0.3086 C   0  0  0  0  0  0  0  0  0  2  0  0
   -1.3775    2.2758    0.5809 C   0  0  0  0  0  0  0  0  0  3  0  0
   -0.2097    0.0908   -0.0175 C   0  0  0  0  0  0  0  0  0  4  0  0
    0.4882   -0.5695   -1.0326 C   0  0  0  0  0  0  0  0  0  5  0  0
    1.4613   -1.5139   -0.7444 C   0  0  0  0  0  0  0  0  0  6  0  0
    1.7654   -1.8324    0.5689 C   0  0  0  0  0  0  0  0  0  7  0  0
    1.0848   -1.1879    1.5923 C   0  0  0  0  0  0  0  0  0  8  0  0
    0.1169   -0.2432    1.3029 C   0  0  0  0  0  0  0  0  0  9  0  0
   -0.6811    1.9001   -2.2063 H   0  0  0  0  0  0  0  0  0 10  0  0
   -1.7374    0.4919   -2.3645 H   0  0  0  0  0  0  0  0  0 11  0  0
   -2.4063    2.0414   -1.8652 H   0  0  0  0  0  0  0  0  0 12  0  0
   -2.2042    0.4894   -0.0387 H   0  0  0  0  0  0  0  0  0 13  0  0
   -2.3036    2.8245    0.3964 H   0  0  0  0  0  0  0  0  0 14  0  0
   -1.3501    2.0287    1.6416 H   0  0  0  0  0  0  0  0  0 15  0  0
   -0.5418    2.9538    0.3774 H   0  0  0  0  0  0  0  0  0 16  0  0
    0.2776   -0.3424   -2.0687 H   0  0  0  0  0  0  0  0  0 17  0  0
    1.9859   -2.0030   -1.5561 H   0  0  0  0  0  0  0  0  0 18  0  0
    2.5238   -2.5712    0.7939 H   0  0  0  0  0  0  0  0  0 19  0  0
    1.3092   -1.4239    2.6253 H   0  0  0  0  0  0  0  0  0 20  0  0
   -0.4030    0.2356    2.1224 H   0  0  0  0  0  0  0  0  0 21  0  0
  1 11  1  0
  1 10  1  0
  1 12  1  0
  1  2  1  0
  2 13  1  0
  2  3  1  0
  2  4  1  0
  3 15  1  0
  3 16  1  0
  3 14  1  0
  4  9  1  0
  4  5  1  0
  5 17  1  0
  5  6  1  0
  6  7  1  0
  6 18  1  0
  7 19  1  0
  7  8  1  0
  8 20  1  0
  8  9  1  0
  9 21  1  0
M  END
>  <rmg_smiles>  (1) 
CC(C)C1[CH][CH][CH][CH][CH]1

>  <rmg_adjacency_list>  (1) 
1  C u0 p0 c0 {2,S} {3,S} {4,S} {10,S}
2  C u0 p0 c0 {1,S} {11,S} {12,S} {13,S}
3  C u0 p0 c0 {1,S} {14,S} {15,S} {16,S}
4  C u0 p0 c0 {1,S} {5,S} {6,S}
5  C u0 p0 c0 {4,S} {7,S} {17,S}
6  C u0 p0 c0 {4,S} {9,S} {21,S}
7  C u0 p0 c0 {5,S} {8,S} {18,S}
8  C u0 p0 c0 {7,S} {9,S} {19,S}
9  C u0 p0 c0 {6,S} {8,S} {20,S}
10 H u0 p0 c0 {1,S}
11 H u0 p0 c0 {2,S}
12 H u0 p0 c0 {2,S}
13 H u0 p0 c0 {2,S}
14 H u0 p0 c0 {3,S}
15 H u0 p0 c0 {3,S}
16 H u0 p0 c0 {3,S}
17 H u0 p0 c0 {5,S}
18 H u0 p0 c0 {7,S}
19 H u0 p0 c0 {8,S}
20 H u0 p0 c0 {9,S}
21 H u0 p0 c0 {6,S}


>  <multiplicity>  (1) 
1

>  <reaction>  (1) 
rxn_1525

>  <type>  (1) 
r1h

>  <role_mapnums>  (1) 
{"r1h_a": 2, "r1h_h": 13}

>  <role_mapidx>  (1) 
{"r1h_a": 1, "r1h_h": 12}

>  <ordered_mapped_smiles>  (1) 
[C:1]([C:2]([C:3]([H:14])([H:15])[H:16])([CH:4]1[CH:5]([H:17])[CH:6]([H:18])[CH:7]([H:19])[CH:8]([H:20])[CH:9]1[H:21])[H:13])([H:10])([H:11])[H:12]

>  <mol_properties>  (1) 
{"1": {"label": "donator", "atom_type": "Cs"}, "12": {"label": "d_hydrogen", "atom_type": "H0"}}

>  <level_of_theory>  (1) 
wb97xd/def2tzvp

>  <lot_method>  (1) 
wb97xd

>  <lot_basis>  (1) 
def2tzvp

>  <spin_multiplicity>  (1) 
1.0

>  <optical_isomers>  (1) 
1.0

>  <modes>  (1) 
IdealGasTranslation(mass=(120.094, 'amu')),         NonlinearRotor(             inertia = ([149.32, 463.91, 504.647

>  <frequency_value>  (1) 
unknown

>  <frequency_units>  (1) 
unknown

>  <frequency_list>  (1) 
unknown

>  <arkane_path>  (1) 
/home/calvin/Dropbox/PersonalFolders/Calvin/HAb_Converged/rxn_1525/output/Species/rxn_1525_CC[C]c1ccccc1/arkane/output.py

>  <path_exists>  (1) 
True

>  <E0_value>  (1) 
-918971.970528892

>  <E0_units>  (1) 
kJ/mol

>  <thermo_class>  (1) 
NASA

>  <Cp0_value>  (1) 
33.257888

>  <Cp0_units>  (1) 
J/(mol*K)

>  <CpInf_value>  (1) 
507.182792

>  <CpInf_units>  (1) 
J/(mol*K)

>  <Tmin_value>  (1) 
10.0

>  <Tmin_units>  (1) 
K

>  <Tmax_value>  (1) 
3000.0

>  <Tmax_units>  (1) 
K

>  <polynomials>  (1) 
[{"name": "polynomial1", "class": "NASAPolynomial", "Tmin_value": 10.0, "Tmin_units": "K", "Tmax_value": 361.89698771116815, "Tmax_units": "K", "coeffs": [3.904348150874836, 0.006616607852618268, 0.00028087468809273564, -5.999642835102763e-07, 4.235225015904021e-10, -110526797.7232917, 13.495788125694109]}, {"name": "polynomial2", "class": "NASAPolynomial", "Tmin_value": 361.89698771116815, "Tmin_units": "K", "Tmax_value": 3000.0, "Tmax_units": "K", "coeffs": [-3.39075948788808, 0.08724899849550145, -5.3334692826885416e-05, 1.57017831876848e-08, -1.785023393439753e-12, -110526269.71121086, 41.27570250066006]}]

>  <H298_value>  (1) 
-219633.7064270357

>  <H298_units>  (1) 
kcal/mol

>  <S298_value>  (1) 
90.86493535567617

>  <S298_units>  (1) 
cal/(mol*K)

>  <Cp_T_value_list>  (1) 
[36.56370347312999, 47.56280707921161, 57.134622203210576, 65.4156511850106, 78.65840917999847, 88.31206493794113, 102.21498042050447, 108.94334502701976, 112.55073582231992]

>  <Cp_T_units>  (1) 
cal/(mol*K)

>  <T_list>  (1) 
[300.0, 400.0, 500.0, 600.0, 800.0, 1000.0, 1500.0, 2000.0, 2400.0]

>  <T_units>  (1) 
K

>  <yaml_path>  (1) 
/home/calvin/Dropbox/PersonalFolders/Calvin/HAb_Converged/rxn_1525/output/Species/rxn_1525_CC[C]c1ccccc1/rxn_1525_CCCc1ccccc1.yml

>  <frequencies_cm1>  (1) 
[40.364139710959996, 128.70790585276, 218.52120685304, 233.3401611736, 266.85791652052, 308.13536527904, 321.59465650623997, 414.80711523991994, 466.94813477468, 550.3133365594799, 568.586384496, 632.73089437012, 716.65918895116, 754.681686668, 783.96251207248, 862.0195342049199, 904.8283206898, 929.47393100328, 933.9718063878798, 965.95822400844, 981.62868450868, 994.4218781598398, 1016.0460149325199, 1049.9277205014, 1069.59476645788, 1107.56919527748, 1128.8637167548, 1168.97377800892, 1175.1197298703198, 1202.8829515190798, 1234.84190119836, 1303.2851438828, 1340.7170808621202, 1342.0355420435599, 1378.7945144615198, 1391.1344870815599, 1410.5131196546, 1472.453327241, 1477.58983226036, 1484.7452309638, 1489.7306623061197, 1494.12553291092, 1530.39694937116, 1639.69188772428, 1662.05765891152, 3009.3533117101997, 3011.8528943666793, 3016.53617835492, 3079.47209881272, 3084.9519530980792, 3090.8438265026402, 3093.05499577568, 3143.16338765572, 3146.4320726680403, 3159.08105962748, 3167.4725156885197, 3180.6639944882395]

>  <ZPE_kJmol>  (1) 
482.8876166623589

>  <E_elec_kJmol>  (1) 
-919454.8581455542

>  <E0_minus_Eelec_plus_ZPE_kJmol>  (1) 
0.0

>  <rxn>  (1) 
rxn_1525

>  <species_type>  (1) 
r0

>  <species_folder>  (1) 
rxn_1525_CC[C]c1ccccc1

>  <frequencies_cm1_list>  (1) 
[40.364139710959996, 128.70790585276, 218.52120685304, 233.3401611736, 266.85791652052, 308.13536527904, 321.59465650623997, 414.80711523991994, 466.94813477468, 550.3133365594799, 568.586384496, 632.73089437012, 716.65918895116, 754.681686668, 783.96251207248, 862.0195342049199, 904.8283206898, 929.47393100328, 933.9718063878798, 965.95822400844, 981.62868450868, 994.4218781598398, 1016.0460149325199, 1049.9277205014, 1069.59476645788, 1107.56919527748, 1128.8637167548, 1168.97377800892, 1175.1197298703198, 1202.8829515190798, 1234.84190119836, 1303.2851438828, 1340.7170808621202, 1342.0355420435599, 1378.7945144615198, 1391.1344870815599, 1410.5131196546, 1472.453327241, 1477.58983226036, 1484.7452309638, 1489.7306623061197, 1494.12553291092, 1530.39694937116, 1639.69188772428, 1662.05765891152, 3009.3533117101997, 3011.8528943666793, 3016.53617835492, 3079.47209881272, 3084.9519530980792, 3090.8438265026402, 3093.05499577568, 3143.16338765572, 3146.4320726680403, 3159.08105962748, 3167.4725156885197, 3180.6639944882395]

>  <E0_kJmol>  (1) 
-918972

>  <H298_kJmol>  (1) 
-918947

$$$$

     RDKit          3D

 14 13  0  0  0  0  0  0  0  0999 V2000
    1.1064    0.7208   -0.2956 H   0  0  0  0  0  0  0  0  0  1  0  0
   -0.9041    0.8842   -0.7466 C   0  0  0  0  0  0  0  0  0  2  0  0
    0.2123    0.1446   -0.0576 C   0  0  0  0  0  0  0  0  0  3  0  0
    0.1523    0.1773    1.4469 C   0  0  0  0  0  0  0  0  0  4  0  0
    0.5395   -1.2036   -0.6429 C   0  0  0  0  0  0  0  0  0  5  0  0
   -0.9924    1.9082   -0.3758 H   0  0  0  0  0  0  0  0  0  6  0  0
   -0.7486    0.9250   -1.8267 H   0  0  0  0  0  0  0  0  0  7  0  0
   -1.8687    0.3895   -0.5723 H   0  0  0  0  0  0  0  0  0  8  0  0
   -0.7181   -0.3813    1.8157 H   0  0  0  0  0  0  0  0  0  9  0  0
    0.0656    1.1999    1.8214 H   0  0  0  0  0  0  0  0  0 10  0  0
    1.0421   -0.2765    1.8877 H   0  0  0  0  0  0  0  0  0 11  0  0
    0.6818   -1.1435   -1.7242 H   0  0  0  0  0  0  0  0  0 12  0  0
    1.4526   -1.6128   -0.2054 H   0  0  0  0  0  0  0  0  0 13  0  0
   -0.2708   -1.9204   -0.4565 H   0  0  0  0  0  0  0  0  0 14  0  0
  1  3  1  0
  2  7  1  0
  2  8  1  0
  2  6  1  0
  2  3  1  0
  3  4  1  0
  3  5  1  0
  4  9  1  0
  4 10  1  0
  4 11  1  0
  5 12  1  0
  5 14  1  0
  5 13  1  0
M  END
>  <rmg_smiles>  (2) 
CC(C)C

>  <rmg_adjacency_list>  (2) 
1  C u0 p0 c0 {2,S} {3,S} {4,S} {5,S}
2  C u0 p0 c0 {1,S} {6,S} {7,S} {8,S}
3  C u0 p0 c0 {1,S} {9,S} {10,S} {11,S}
4  C u0 p0 c0 {1,S} {12,S} {13,S} {14,S}
5  H u0 p0 c0 {1,S}
6  H u0 p0 c0 {2,S}
7  H u0 p0 c0 {2,S}
8  H u0 p0 c0 {2,S}
9  H u0 p0 c0 {3,S}
10 H u0 p0 c0 {3,S}
11 H u0 p0 c0 {3,S}
12 H u0 p0 c0 {4,S}
13 H u0 p0 c0 {4,S}
14 H u0 p0 c0 {4,S}


>  <multiplicity>  (2) 
1

>  <reaction>  (2) 
rxn_1525

>  <type>  (2) 
r2h

>  <role_mapnums>  (2) 
{"r2h_a": 3, "r2h_h": 1}

>  <role_mapidx>  (2) 
{"r2h_a": 2, "r2h_h": 0}

>  <ordered_mapped_smiles>  (2) 
[H:1][C:3]([C:2]([H:6])([H:7])[H:8])([C:4]([H:9])([H:10])[H:11])[C:5]([H:12])([H:13])[H:14]

>  <mol_properties>  (2) 
{"0": {"label": "a_hydrogen", "atom_type": "H0"}, "2": {"label": "acceptor", "atom_type": "Cs"}}

>  <level_of_theory>  (2) 
wb97xd/def2tzvp

>  <lot_method>  (2) 
wb97xd

>  <lot_basis>  (2) 
def2tzvp

>  <spin_multiplicity>  (2) 
1.0

>  <optical_isomers>  (2) 
1.0

>  <modes>  (2) 
IdealGasTranslation(mass=(58.0782, 'amu')),         NonlinearRotor(             inertia = ([64.472, 64.4726, 111.215

>  <frequency_value>  (2) 
unknown

>  <frequency_units>  (2) 
unknown

>  <frequency_list>  (2) 
unknown

>  <arkane_path>  (2) 
/home/calvin/Dropbox/PersonalFolders/Calvin/HAb_Converged/rxn_1525/output/Species/rxn_1525_CC[C]C/arkane/output.py

>  <path_exists>  (2) 
True

>  <E0_value>  (2) 
-415716.8339886703

>  <E0_units>  (2) 
kJ/mol

>  <thermo_class>  (2) 
NASA

>  <Cp0_value>  (2) 
33.257888

>  <Cp0_units>  (2) 
J/(mol*K)

>  <CpInf_value>  (2) 
332.57888

>  <CpInf_units>  (2) 
J/(mol*K)

>  <Tmin_value>  (2) 
10.0

>  <Tmin_units>  (2) 
K

>  <Tmax_value>  (2) 
3000.0

>  <Tmax_units>  (2) 
K

>  <polynomials>  (2) 
[{"name": "polynomial1", "class": "NASAPolynomial", "Tmin_value": 10.0, "Tmin_units": "K", "Tmax_value": 538.8928713641172, "Tmax_units": "K", "coeffs": [3.862155230457941, 0.009619141137094483, 8.471871021955107e-05, -1.3083283813156215e-07, 6.32168524255448e-11, -49999181.797361515, 7.5585042364224835]}, {"name": "polynomial2", "class": "NASAPolynomial", "Tmin_value": 538.8928713641172, "Tmin_units": "K", "Tmax_value": 3000.0, "Tmax_units": "K", "coeffs": [-1.5294114620608343, 0.04963895328530885, -2.6676464109865482e-05, 6.9754034187264525e-09, -7.147032484493268e-13, -49998600.705350555, 30.23639172280346]}]

>  <H298_value>  (2) 
-99354.53169412688

>  <H298_units>  (2) 
kcal/mol

>  <S298_value>  (2) 
69.87073697689716

>  <S298_units>  (2) 
cal/(mol*K)

>  <Cp_T_value_list>  (2) 
[22.559068995227587, 28.83407838681881, 34.673478255196834, 39.87229495609152, 48.462955291897494, 55.03325544644061, 65.24153062750356, 70.36820243051973, 72.85790881344903]

>  <Cp_T_units>  (2) 
cal/(mol*K)

>  <T_list>  (2) 
[300.0, 400.0, 500.0, 600.0, 800.0, 1000.0, 1500.0, 2000.0, 2400.0]

>  <T_units>  (2) 
K

>  <yaml_path>  (2) 
/home/calvin/Dropbox/PersonalFolders/Calvin/HAb_Converged/rxn_1525/output/Species/rxn_1525_CC[C]C/rxn_1525_CCCC.yml

>  <frequencies_cm1>  (2) 
[210.87138520655995, 262.27763731208, 262.77892724044, 369.01805712616, 369.3064705096, 435.1265248018, 804.0278431775198, 925.3606067966, 925.5734833415199, 953.62511837372, 976.1900321352399, 976.40977566548, 1191.09920470996, 1191.22967743104, 1204.1602107886, 1353.15319127664, 1353.1943931885598, 1393.16711473628, 1393.4143262078, 1417.2771001948001, 1467.55029972252, 1474.0670687911997, 1474.2318764388801, 1492.49805739008, 1492.5735942285999, 1500.8757794804799, 2997.89918019644, 3000.1240834401196, 3000.2682901318394, 3005.61767169612, 3068.7664686988396, 3068.91754237588, 3077.5424759377997, 3079.9802557263997, 3083.48928522492, 3083.83263449092]

>  <ZPE_kJmol>  (2) 
342.9425201614715

>  <E_elec_kJmol>  (2) 
-416059.7765088317

>  <E0_minus_Eelec_plus_ZPE_kJmol>  (2) 
0.0

>  <rxn>  (2) 
rxn_1525

>  <species_type>  (2) 
p0

>  <species_folder>  (2) 
rxn_1525_CC[C]C

>  <frequencies_cm1_list>  (2) 
[210.87138520655995, 262.27763731208, 262.77892724044, 369.01805712616, 369.3064705096, 435.1265248018, 804.0278431775198, 925.3606067966, 925.5734833415199, 953.62511837372, 976.1900321352399, 976.40977566548, 1191.09920470996, 1191.22967743104, 1204.1602107886, 1353.15319127664, 1353.1943931885598, 1393.16711473628, 1393.4143262078, 1417.2771001948001, 1467.55029972252, 1474.0670687911997, 1474.2318764388801, 1492.49805739008, 1492.5735942285999, 1500.8757794804799, 2997.89918019644, 3000.1240834401196, 3000.2682901318394, 3005.61767169612, 3068.7664686988396, 3068.91754237588, 3077.5424759377997, 3079.9802557263997, 3083.48928522492, 3083.83263449092]

>  <E0_kJmol>  (2) 
-415717

>  <H298_kJmol>  (2) 
-415699

$$$$

     RDKit          3D

 34 33  0  0  0  0  0  0  0  0999 V2000
   -0.3210    1.5438   -1.8964 C   0  0  0  0  0  0  0  0  0  1  0  0
   -0.0885    1.2096   -0.4387 C   0  0  0  0  0  0  0  0  0  2  0  0
   -0.1571    2.4359    0.4508 C   0  0  0  0  0  0  0  0  0  3  0  0
    1.0106    0.2509   -0.1476 C   0  0  0  0  0  0  0  0  0  4  0  0
    1.7086   -0.4094   -1.1626 C   0  0  0  0  0  0  0  0  0  5  0  0
    2.6817   -1.3538   -0.8745 C   0  0  0  0  0  0  0  0  0  6  0  0
    2.9857   -1.6723    0.4388 C   0  0  0  0  0  0  0  0  0  7  0  0
    2.3052   -1.0278    1.4622 C   0  0  0  0  0  0  0  0  0  8  0  0
    1.3373   -0.0831    1.1728 C   0  0  0  0  0  0  0  0  0  9  0  0
    0.5392    2.0602   -2.3363 H   0  0  0  0  0  0  0  0  0 10  0  0
   -0.5171    0.6520   -2.4946 H   0  0  0  0  0  0  0  0  0 11  0  0
   -1.1859    2.2016   -1.9953 H   0  0  0  0  0  0  0  0  0 12  0  0
   -1.1587    0.5401   -0.1161 H   0  0  0  0  0  0  0  0  0 13  0  0
   -1.0832    2.9846    0.2663 H   0  0  0  0  0  0  0  0  0 14  0  0
   -0.1298    2.1889    1.5115 H   0  0  0  0  0  0  0  0  0 15  0  0
    0.6785    3.1139    0.2473 H   0  0  0  0  0  0  0  0  0 16  0  0
    1.4979   -0.1823   -2.1988 H   0  0  0  0  0  0  0  0  0 17  0  0
    3.2063   -1.8429   -1.6862 H   0  0  0  0  0  0  0  0  0 18  0  0
    3.7441   -2.4111    0.6638 H   0  0  0  0  0  0  0  0  0 19  0  0
    2.5295   -1.2638    2.4952 H   0  0  0  0  0  0  0  0  0 20  0  0
    0.8173    0.3957    1.9923 H   0  0  0  0  0  0  0  0  0 21  0  0
   -3.4194    0.5423   -0.5005 C   0  0  0  0  0  0  0  0  0 22  0  0
   -2.3029   -0.1973    0.1885 C   0  0  0  0  0  3  0  0  0 23  0  0
   -2.3629   -0.1646    1.6930 C   0  0  0  0  0  0  0  0  0 24  0  0
   -1.9757   -1.5455   -0.3968 C   0  0  0  0  0  0  0  0  0 25  0  0
   -3.5076    1.5663   -0.1297 H   0  0  0  0  0  0  0  0  0 26  0  0
   -3.2638    0.5831   -1.5806 H   0  0  0  0  0  0  0  0  0 27  0  0
   -4.3839    0.0476   -0.3262 H   0  0  0  0  0  0  0  0  0 28  0  0
   -3.2333   -0.7232    2.0618 H   0  0  0  0  0  0  0  0  0 29  0  0
   -2.4496    0.8580    2.0675 H   0  0  0  0  0  0  0  0  0 30  0  0
   -1.4731   -0.6184    2.1338 H   0  0  0  0  0  0  0  0  0 31  0  0
   -1.8334   -1.4854   -1.4782 H   0  0  0  0  0  0  0  0  0 32  0  0
   -1.0626   -1.9547    0.0407 H   0  0  0  0  0  0  0  0  0 33  0  0
   -2.7860   -2.2623   -0.2104 H   0  0  0  0  0  0  0  0  0 34  0  0
  1 11  1  0
  1 10  1  0
  1 12  1  0
  1  2  1  0
  2 13  1  0
  2  3  1  0
  2  4  1  0
  3 15  1  0
  3 16  1  0
  3 14  1  0
  4  9  1  0
  4  5  1  0
  5 17  1  0
  5  6  1  0
  6  7  1  0
  6 18  1  0
  7 19  1  0
  7  8  1  0
  8 20  1  0
  8  9  1  0
  9 21  1  0
 22 27  1  0
 22 26  1  0
 22 28  1  0
 22 23  1  0
 23 24  1  0
 23 25  1  0
 24 29  1  0
 24 31  1  0
 24 30  1  0
 25 33  1  0
 25 34  1  0
 25 32  1  0
M  RAD  1  23   2
M  END
>  <rmg_smiles>  (3) 
CC(C)C1[CH][CH][CH][CH][CH]1.C[C](C)C

>  <rmg_adjacency_list>  (3) 
multiplicity 2
1  C u0 p0 c0 {2,S} {3,S} {8,S} {14,S}
2  C u0 p0 c0 {1,S} {15,S} {16,S} {17,S}
3  C u0 p0 c0 {1,S} {18,S} {19,S} {20,S}
4  C u0 p0 c0 {7,S} {21,S} {22,S} {23,S}
5  C u0 p0 c0 {7,S} {24,S} {25,S} {26,S}
6  C u0 p0 c0 {7,S} {27,S} {28,S} {29,S}
7  C u1 p0 c0 {4,S} {5,S} {6,S}
8  C u0 p0 c0 {1,S} {9,S} {10,S}
9  C u0 p0 c0 {8,S} {11,S} {30,S}
10 C u0 p0 c0 {8,S} {13,S} {34,S}
11 C u0 p0 c0 {9,S} {12,S} {31,S}
12 C u0 p0 c0 {11,S} {13,S} {32,S}
13 C u0 p0 c0 {10,S} {12,S} {33,S}
14 H u0 p0 c0 {1,S}
15 H u0 p0 c0 {2,S}
16 H u0 p0 c0 {2,S}
17 H u0 p0 c0 {2,S}
18 H u0 p0 c0 {3,S}
19 H u0 p0 c0 {3,S}
20 H u0 p0 c0 {3,S}
21 H u0 p0 c0 {4,S}
22 H u0 p0 c0 {4,S}
23 H u0 p0 c0 {4,S}
24 H u0 p0 c0 {5,S}
25 H u0 p0 c0 {5,S}
26 H u0 p0 c0 {5,S}
27 H u0 p0 c0 {6,S}
28 H u0 p0 c0 {6,S}
29 H u0 p0 c0 {6,S}
30 H u0 p0 c0 {9,S}
31 H u0 p0 c0 {11,S}
32 H u0 p0 c0 {12,S}
33 H u0 p0 c0 {13,S}
34 H u0 p0 c0 {10,S}


>  <multiplicity>  (3) 
2

>  <reaction>  (3) 
rxn_1525

>  <type>  (3) 
ts

>  <role_mapnums>  (3) 
{"*2": 13, "*1": 2, "*3": 23, "*0": 4, "*4": 22}

>  <role_mapidx>  (3) 
{"*2": 12, "*1": 1, "*3": 22, "*0": 3, "*4": 21}

>  <ordered_mapped_smiles>  (3) 
[C:1]([C:2]([C:3]([H:14])([H:15])[H:16])([CH:4]1[CH:5]([H:17])[CH:6]([H:18])[CH:7]([H:19])[CH:8]([H:20])[CH:9]1[H:21])[H:13])([H:10])([H:11])[H:12].[C:22]([C:23]([C:24]([H:29])([H:30])[H:31])[C:25]([H:32])([H:33])[H:34])([H:26])([H:27])[H:28]

>  <mol_properties>  (3) 
{"1": {"label": "*1", "atom_type": "Cs"}, "3": {"label": "*0", "atom_type": "Cs"}, "12": {"label": "*2", "atom_type": "H0"}, "21": {"label": "*4", "atom_type": "Cs"}, "22": {"label": "*3", "atom_type": "Cs"}}

>  <level_of_theory>  (3) 
wb97xd/def2tzvp

>  <lot_method>  (3) 
wb97xd

>  <lot_basis>  (3) 
def2tzvp

>  <spin_multiplicity>  (3) 
2.0

>  <optical_isomers>  (3) 
2.0

>  <modes>  (3) 
IdealGasTranslation(mass=(177.164, 'amu')),         NonlinearRotor(             inertia = ([453.931, 982.253, 1067.53

>  <frequency_value>  (3) 
-1636.6

>  <frequency_units>  (3) 
cm^-1

>  <frequency_list>  (3) 
unknown

>  <arkane_path>  (3) 
/home/calvin/Dropbox/PersonalFolders/Calvin/HAb_Converged/rxn_1525/output/rxns/TS0/arkane/output.py

>  <path_exists>  (3) 
True

>  <E0_value>  (3) 
-1332950.0

>  <E0_units>  (3) 
kJ/mol

>  <thermo_class>  (3) 
unknown

>  <Cp0_value>  (3) 
unknown

>  <Cp0_units>  (3) 
unknown

>  <CpInf_value>  (3) 
unknown

>  <CpInf_units>  (3) 
unknown

>  <Tmin_value>  (3) 
unknown

>  <Tmin_units>  (3) 
unknown

>  <Tmax_value>  (3) 
unknown

>  <Tmax_units>  (3) 
unknown

>  <polynomials>  (3) 
unknown

>  <H298_value>  (3) 
unknown

>  <H298_units>  (3) 
unknown

>  <S298_value>  (3) 
unknown

>  <S298_units>  (3) 
unknown

>  <Cp_T_value_list>  (3) 
unknown

>  <Cp_T_units>  (3) 
unknown

>  <T_list>  (3) 
unknown

>  <T_units>  (3) 
unknown

>  <yaml_path>  (3) 
unknown

>  <frequencies_cm1>  (3) 
unknown

>  <ZPE_kJmol>  (3) 
unknown

>  <E_elec_kJmol>  (3) 
unknown

>  <E0_minus_Eelec_plus_ZPE_kJmol>  (3) 
unknown

>  <rxn>  (3) 
unknown

>  <species_type>  (3) 
unknown

>  <species_folder>  (3) 
unknown

>  <frequencies_cm1_list>  (3) 
[]

>  <ts_imag_freq_cm1>  (3) 
-1656.4768

>  <ts_freq_out_path>  (3) 
/home/calvin/Dropbox/PersonalFolders/Calvin/HAb_Converged/rxn_1525/output/rxns/TS0/geometry/freq.out

>  <E0_kJmol>  (3) 
-1.33295e+06

>  <H298_kJmol>  (3) 
unknown

$$$$

     RDKit          3D

 20 20  0  0  0  0  0  0  0  0999 V2000
   -2.4774    0.8083    0.1488 C   0  0  0  0  0  0  0  0  0  1  0  0
   -1.4172   -0.1696   -0.2476 C   0  0  0  0  0  3  0  0  0  2  0  0
   -0.2904    0.2932   -1.1156 C   0  0  0  0  0  0  0  0  0  3  0  0
   -1.4797   -1.5204    0.1947 C   0  0  0  0  0  0  0  0  0  4  0  0
   -0.4907   -2.4664   -0.1650 C   0  0  0  0  0  0  0  0  0  5  0  0
   -0.5559   -3.7750    0.2665 C   0  0  0  0  0  0  0  0  0  6  0  0
   -1.6038   -4.2041    1.0733 C   0  0  0  0  0  0  0  0  0  7  0  0
   -2.5899   -3.2959    1.4424 C   0  0  0  0  0  0  0  0  0  8  0  0
   -2.5339   -1.9852    1.0162 C   0  0  0  0  0  0  0  0  0  9  0  0
   -3.4697    0.4933   -0.1924 H   0  0  0  0  0  0  0  0  0 10  0  0
   -2.5434    0.9184    1.2368 H   0  0  0  0  0  0  0  0  0 11  0  0
   -2.2829    1.7944   -0.2706 H   0  0  0  0  0  0  0  0  0 12  0  0
   -0.2452   -0.2661   -2.0565 H   0  0  0  0  0  0  0  0  0 13  0  0
   -0.3905    1.3487   -1.3647 H   0  0  0  0  0  0  0  0  0 14  0  0
    0.6811    0.1589   -0.6274 H   0  0  0  0  0  0  0  0  0 15  0  0
    0.3373   -2.1635   -0.7918 H   0  0  0  0  0  0  0  0  0 16  0  0
    0.2187   -4.4725   -0.0281 H   0  0  0  0  0  0  0  0  0 17  0  0
   -1.6513   -5.2316    1.4097 H   0  0  0  0  0  0  0  0  0 18  0  0
   -3.4116   -3.6175    2.0706 H   0  0  0  0  0  0  0  0  0 19  0  0
   -3.3164   -1.3029    1.3205 H   0  0  0  0  0  0  0  0  0 20  0  0
  1 11  1  0
  1 10  1  0
  1 12  1  0
  1  2  1  0
  2  3  1  0
  2  4  1  0
  3 15  1  0
  3 13  1  0
  3 14  1  0
  4  9  1  0
  4  5  1  0
  5 16  1  0
  5  6  1  0
  6  7  1  0
  6 17  1  0
  7 18  1  0
  7  8  1  0
  8 19  1  0
  8  9  1  0
  9 20  1  0
M  RAD  1   2   2
M  END
>  <rmg_smiles>  (4) 
C[C](C)C1[CH][CH][CH][CH][CH]1

>  <rmg_adjacency_list>  (4) 
multiplicity 2
1  C u0 p0 c0 {3,S} {10,S} {11,S} {12,S}
2  C u0 p0 c0 {3,S} {13,S} {14,S} {15,S}
3  C u1 p0 c0 {1,S} {2,S} {4,S}
4  C u0 p0 c0 {3,S} {5,S} {6,S}
5  C u0 p0 c0 {4,S} {7,S} {16,S}
6  C u0 p0 c0 {4,S} {9,S} {20,S}
7  C u0 p0 c0 {5,S} {8,S} {17,S}
8  C u0 p0 c0 {7,S} {9,S} {18,S}
9  C u0 p0 c0 {6,S} {8,S} {19,S}
10 H u0 p0 c0 {1,S}
11 H u0 p0 c0 {1,S}
12 H u0 p0 c0 {1,S}
13 H u0 p0 c0 {2,S}
14 H u0 p0 c0 {2,S}
15 H u0 p0 c0 {2,S}
16 H u0 p0 c0 {5,S}
17 H u0 p0 c0 {7,S}
18 H u0 p0 c0 {8,S}
19 H u0 p0 c0 {9,S}
20 H u0 p0 c0 {6,S}


>  <multiplicity>  (4) 
2

>  <reaction>  (4) 
rxn_1525

>  <type>  (4) 
r1

>  <role_mapnums>  (4) 
{}

>  <role_mapidx>  (4) 
{}

>  <ordered_mapped_smiles>  (4) 
[C:1]([C:2]([C:3]([H:13])([H:14])[H:15])[CH:4]1[CH:5]([H:16])[CH:6]([H:17])[CH:7]([H:18])[CH:8]([H:19])[CH:9]1[H:20])([H:10])([H:11])[H:12]

>  <level_of_theory>  (4) 
wb97xd/def2tzvp

>  <lot_method>  (4) 
wb97xd

>  <lot_basis>  (4) 
def2tzvp

>  <spin_multiplicity>  (4) 
2.0

>  <optical_isomers>  (4) 
1.0

>  <modes>  (4) 
IdealGasTranslation(mass=(119.086, 'amu')),         NonlinearRotor(             inertia = ([147.943, 418.336, 560.064

>  <frequency_value>  (4) 
unknown

>  <frequency_units>  (4) 
unknown

>  <frequency_list>  (4) 
unknown

>  <arkane_path>  (4) 
/home/calvin/Dropbox/PersonalFolders/Calvin/HAb_Converged/rxn_1525/output/Species/rxn_1525_C[C][C]c1ccccc1/arkane/output.py

>  <path_exists>  (4) 
True

>  <E0_value>  (4) 
-917305.6793154374

>  <E0_units>  (4) 
kJ/mol

>  <thermo_class>  (4) 
NASA

>  <Cp0_value>  (4) 
33.257888

>  <Cp0_units>  (4) 
J/(mol*K)

>  <CpInf_value>  (4) 
482.239376

>  <CpInf_units>  (4) 
J/(mol*K)

>  <Tmin_value>  (4) 
10.0

>  <Tmin_units>  (4) 
K

>  <Tmax_value>  (4) 
3000.0

>  <Tmax_units>  (4) 
K

>  <polynomials>  (4) 
[{"name": "polynomial1", "class": "NASAPolynomial", "Tmin_value": 10.0, "Tmin_units": "K", "Tmax_value": 820.2225002457031, "Tmax_units": "K", "coeffs": [3.7087715908878534, 0.03551334410867291, 7.625059119540152e-05, -1.2560734316113271e-07, 5.320480088877488e-11, -110326392.84742013, 12.19412592857727]}, {"name": "polynomial2", "class": "NASAPolynomial", "Tmin_value": 820.2225002457031, "Tmin_units": "K", "Tmax_value": 3000.0, "Tmax_units": "K", "coeffs": [2.0631615838326263, 0.07155383546720528, -4.0892856549356014e-05, 1.1247434201086425e-08, -1.200197285964276e-12, -110327065.27984656, 14.06242109608226]}]

>  <H298_value>  (4) 
-219235.10103074583

>  <H298_units>  (4) 
kcal/mol

>  <S298_value>  (4) 
91.98557876161978

>  <S298_units>  (4) 
cal/(mol*K)

>  <Cp_T_value_list>  (4) 
[36.29610547032918, 46.57490747487287, 55.94477856481854, 64.04994476982951, 76.31181375819965, 84.99555925751662, 97.907834516263, 104.08137794150619, 107.1390022615462]

>  <Cp_T_units>  (4) 
cal/(mol*K)

>  <T_list>  (4) 
[300.0, 400.0, 500.0, 600.0, 800.0, 1000.0, 1500.0, 2000.0, 2400.0]

>  <T_units>  (4) 
K

>  <yaml_path>  (4) 
/home/calvin/Dropbox/PersonalFolders/Calvin/HAb_Converged/rxn_1525/output/Species/rxn_1525_C[C][C]c1ccccc1/rxn_1525_CCCc1ccccc1.yml

>  <frequencies_cm1>  (4) 
[63.56081612192, 120.90701052923998, 139.35173309875998, 146.39726003707997, 226.46630886828, 338.41877054023996, 360.33818768168, 416.18737928923997, 451.99870773303996, 518.2376481297599, 524.17759043156, 626.9420257453601, 690.9491959130801, 730.7777107690799, 767.1040631118799, 830.7266821016799, 897.8583305899999, 913.4944561636399, 942.5692720085199, 968.56767843004, 978.9505602338799, 993.91372124616, 999.23563486916, 1039.80578413972, 1044.4753341573198, 1105.9691876979198, 1113.02158162156, 1170.28537220504, 1199.70353731592, 1239.75866268748, 1319.3882244581998, 1348.18836089028, 1355.0896811368798, 1389.11559339748, 1406.12511603512, 1462.54426742424, 1462.78461191044, 1474.0258668792799, 1486.24910074888, 1486.8121935451197, 1509.72045657264, 1596.1139988835598, 1617.80680550944, 2981.31541064864, 2984.9205779416397, 3027.138803689, 3028.1413835457197, 3095.76058799176, 3103.71255699232, 3152.0767346010794, 3159.1703304366397, 3175.07426843776, 3181.8657169192397, 3186.23311958276]

>  <ZPE_kJmol>  (4) 
445.9053042173275

>  <E_elec_kJmol>  (4) 
-917751.5846196548

>  <E0_minus_Eelec_plus_ZPE_kJmol>  (4) 
0.0

>  <rxn>  (4) 
rxn_1525

>  <species_type>  (4) 
p1

>  <species_folder>  (4) 
rxn_1525_C[C][C]c1ccccc1

>  <frequencies_cm1_list>  (4) 
[63.56081612192, 120.90701052923998, 139.35173309875998, 146.39726003707997, 226.46630886828, 338.41877054023996, 360.33818768168, 416.18737928923997, 451.99870773303996, 518.2376481297599, 524.17759043156, 626.9420257453601, 690.9491959130801, 730.7777107690799, 767.1040631118799, 830.7266821016799, 897.8583305899999, 913.4944561636399, 942.5692720085199, 968.56767843004, 978.9505602338799, 993.91372124616, 999.23563486916, 1039.80578413972, 1044.4753341573198, 1105.9691876979198, 1113.02158162156, 1170.28537220504, 1199.70353731592, 1239.75866268748, 1319.3882244581998, 1348.18836089028, 1355.0896811368798, 1389.11559339748, 1406.12511603512, 1462.54426742424, 1462.78461191044, 1474.0258668792799, 1486.24910074888, 1486.8121935451197, 1509.72045657264, 1596.1139988835598, 1617.80680550944, 2981.31541064864, 2984.9205779416397, 3027.138803689, 3028.1413835457197, 3095.76058799176, 3103.71255699232, 3152.0767346010794, 3159.1703304366397, 3175.07426843776, 3181.8657169192397, 3186.23311958276]

>  <E0_kJmol>  (4) 
-917306

>  <H298_kJmol>  (4) 
-917280

$$$$

     RDKit          3D

 13 12  0  0  0  0  0  0  0  0999 V2000
   -1.3649   -0.5967   -0.3477 C   0  0  0  0  0  0  0  0  0  1  0  0
   -0.1601   -0.2776    0.4669 C   0  0  0  0  0  3  0  0  0  2  0  0
    1.1241   -0.9571    0.1414 C   0  0  0  0  0  0  0  0  0  3  0  0
   -0.1188    1.0130    1.2082 C   0  0  0  0  0  0  0  0  0  4  0  0
   -1.4265   -1.6632   -0.5770 H   0  0  0  0  0  0  0  0  0  5  0  0
   -2.2859   -0.3004    0.1602 H   0  0  0  0  0  0  0  0  0  6  0  0
   -1.3532   -0.0668   -1.3139 H   0  0  0  0  0  0  0  0  0  7  0  0
    1.6174   -0.4963   -0.7297 H   0  0  0  0  0  0  0  0  0  8  0  0
    0.9723   -2.0104   -0.1064 H   0  0  0  0  0  0  0  0  0  9  0  0
    1.8338   -0.8977    0.9701 H   0  0  0  0  0  0  0  0  0 10  0  0
   -1.0851    1.2507    1.6593 H   0  0  0  0  0  0  0  0  0 11  0  0
    0.6358    1.0009    1.9983 H   0  0  0  0  0  0  0  0  0 12  0  0
    0.1343    1.8546    0.5434 H   0  0  0  0  0  0  0  0  0 13  0  0
  1  5  1  0
  1  7  1  0
  1  6  1  0
  1  2  1  0
  2  3  1  0
  2  4  1  0
  3  9  1  0
  3 10  1  0
  3  8  1  0
  4 13  1  0
  4 12  1  0
  4 11  1  0
M  RAD  1   2   2
M  END
>  <rmg_smiles>  (5) 
C[C](C)C

>  <rmg_adjacency_list>  (5) 
multiplicity 2
1  C u0 p0 c0 {4,S} {5,S} {6,S} {7,S}
2  C u0 p0 c0 {4,S} {8,S} {9,S} {10,S}
3  C u0 p0 c0 {4,S} {11,S} {12,S} {13,S}
4  C u1 p0 c0 {1,S} {2,S} {3,S}
5  H u0 p0 c0 {1,S}
6  H u0 p0 c0 {1,S}
7  H u0 p0 c0 {1,S}
8  H u0 p0 c0 {2,S}
9  H u0 p0 c0 {2,S}
10 H u0 p0 c0 {2,S}
11 H u0 p0 c0 {3,S}
12 H u0 p0 c0 {3,S}
13 H u0 p0 c0 {3,S}


>  <multiplicity>  (5) 
2

>  <reaction>  (5) 
rxn_1525

>  <type>  (5) 
r2

>  <role_mapnums>  (5) 
{}

>  <role_mapidx>  (5) 
{}

>  <ordered_mapped_smiles>  (5) 
[C:1]([C:2]([C:3]([H:8])([H:9])[H:10])[C:4]([H:11])([H:12])[H:13])([H:5])([H:6])[H:7]

>  <level_of_theory>  (5) 
wb97xd/def2tzvp

>  <lot_method>  (5) 
wb97xd

>  <lot_basis>  (5) 
def2tzvp

>  <spin_multiplicity>  (5) 
2.0

>  <optical_isomers>  (5) 
1.0

>  <modes>  (5) 
IdealGasTranslation(mass=(57.0704, 'amu')),         NonlinearRotor(             inertia = ([62.748, 62.7522, 115.629

>  <frequency_value>  (5) 
unknown

>  <frequency_units>  (5) 
unknown

>  <frequency_list>  (5) 
unknown

>  <arkane_path>  (5) 
/home/calvin/Dropbox/PersonalFolders/Calvin/HAb_Converged/rxn_1525/output/Species/rxn_1525_C[C][C]C/arkane/output.py

>  <path_exists>  (5) 
True

>  <E0_value>  (5) 
-414011.87390639377

>  <E0_units>  (5) 
kJ/mol

>  <thermo_class>  (5) 
NASA

>  <Cp0_value>  (5) 
33.257888

>  <Cp0_units>  (5) 
J/(mol*K)

>  <CpInf_value>  (5) 
307.635464

>  <CpInf_units>  (5) 
J/(mol*K)

>  <Tmin_value>  (5) 
10.0

>  <Tmin_units>  (5) 
K

>  <Tmax_value>  (5) 
3000.0

>  <Tmax_units>  (5) 
K

>  <polynomials>  (5) 
[{"name": "polynomial1", "class": "NASAPolynomial", "Tmin_value": 10.0, "Tmin_units": "K", "Tmax_value": 459.92752009342803, "Tmax_units": "K", "coeffs": [3.6282320925696543, 0.037836861234186094, -8.990993189766477e-05, 2.317341671970165e-07, -1.943217797246617e-10, -49794126.33404845, 8.375183355034144]}, {"name": "polynomial2", "class": "NASAPolynomial", "Tmin_value": 459.92752009342803, "Tmin_units": "K", "Tmax_value": 3000.0, "Tmax_units": "K", "coeffs": [-0.4770881154300751, 0.0457788917639205, -2.5269307961222033e-05, 6.7954569528658325e-09, -7.148645535188458e-13, -49793455.07435722, 28.1845646294843]}]

>  <H298_value>  (5) 
-98946.5740746962

>  <H298_units>  (5) 
kcal/mol

>  <S298_value>  (5) 
75.49362671442749

>  <S298_units>  (5) 
cal/(mol*K)

>  <Cp_T_value_list>  (5) 
[22.992401876175055, 28.28537394868159, 33.58336035281016, 38.290425533938965, 46.023968130968036, 51.89209840575934, 60.90981088148715, 65.43729187506106, 67.69209288649273]

>  <Cp_T_units>  (5) 
cal/(mol*K)

>  <T_list>  (5) 
[300.0, 400.0, 500.0, 600.0, 800.0, 1000.0, 1500.0, 2000.0, 2400.0]

>  <T_units>  (5) 
K

>  <yaml_path>  (5) 
/home/calvin/Dropbox/PersonalFolders/Calvin/HAb_Converged/rxn_1525/output/Species/rxn_1525_C[C][C]C/rxn_1525_CCCC.yml

>  <frequencies_cm1>  (5) 
[125.06840363315999, 128.42635945464, 129.21606276643996, 257.14799927803995, 382.49794930931995, 382.8687665165999, 764.0551216298, 930.3048362269999, 930.3529051242399, 963.9324633390399, 1004.1867312848799, 1004.54381452152, 1087.71674071736, 1293.6370295082, 1293.76063524396, 1387.1859705225597, 1387.5430537591997, 1410.6573263463201, 1453.51418172844, 1456.50818732796, 1456.74166482884, 1475.6670763707598, 1477.9949843942402, 1478.23532888044, 2923.2413157973997, 2923.62586697532, 2931.1040139887996, 3026.3422333918797, 3027.06326685048, 3028.0795806778397, 3072.3098331239594, 3076.1416109325196, 3076.7115707140792]

>  <ZPE_kJmol>  (5) 
303.5308623425254

>  <E_elec_kJmol>  (5) 
-414315.4047687363

>  <E0_minus_Eelec_plus_ZPE_kJmol>  (5) 
0.0

>  <rxn>  (5) 
rxn_1525

>  <species_type>  (5) 
r1

>  <species_folder>  (5) 
rxn_1525_C[C][C]C

>  <frequencies_cm1_list>  (5) 
[125.06840363315999, 128.42635945464, 129.21606276643996, 257.14799927803995, 382.49794930931995, 382.8687665165999, 764.0551216298, 930.3048362269999, 930.3529051242399, 963.9324633390399, 1004.1867312848799, 1004.54381452152, 1087.71674071736, 1293.6370295082, 1293.76063524396, 1387.1859705225597, 1387.5430537591997, 1410.6573263463201, 1453.51418172844, 1456.50818732796, 1456.74166482884, 1475.6670763707598, 1477.9949843942402, 1478.23532888044, 2923.2413157973997, 2923.62586697532, 2931.1040139887996, 3026.3422333918797, 3027.06326685048, 3028.0795806778397, 3072.3098331239594, 3076.1416109325196, 3076.7115707140792]

>  <E0_kJmol>  (5) 
-414012

>  <H298_kJmol>  (5) 
-413992

$$$$
