
     RDKit          3D

 13 12  0  0  0  0  0  0  0  0999 V2000
   -0.6448   -0.0260   -1.7377 C   0  0  0  0  0  0  0  0  0  1  0  0
   -0.5523    0.0130   -0.2232 C   0  0  0  0  0  0  0  0  0  2  0  0
   -0.6146    1.3936    0.3876 C   0  0  0  0  0  0  0  0  0  3  0  0
    0.5488   -0.8502    0.3123 C   0  0  0  0  0  0  0  0  0  4  0  0
    1.2454   -0.5718    1.2499 O   0  0  0  0  0  0  0  0  0  5  0  0
    0.1797    0.5341   -2.1862 H   0  0  0  0  0  0  0  0  0  6  0  0
   -1.5783    0.4247   -2.0759 H   0  0  0  0  0  0  0  0  0  7  0  0
   -0.6060   -1.0491   -2.1165 H   0  0  0  0  0  0  0  0  0  8  0  0
   -1.4375   -0.5199    0.1239 H   0  0  0  0  0  0  0  0  0  9  0  0
   -1.5289    1.9047    0.0834 H   0  0  0  0  0  0  0  0  0 10  0  0
    0.2372    1.9924    0.0567 H   0  0  0  0  0  0  0  0  0 11  0  0
   -0.5803    1.3442    1.4749 H   0  0  0  0  0  0  0  0  0 12  0  0
    0.6765   -1.8177   -0.2185 H   0  0  0  0  0  0  0  0  0 13  0  0
  1  8  1  0
  1  7  1  0
  1  6  1  0
  1  2  1  0
  2  9  1  0
  2  3  1  0
  2  4  1  0
  3 11  1  0
  3 12  1  0
  3 10  1  0
  4 13  1  0
  4  5  1  0
M  END
>  <rmg_smiles>  (1) 
CC(C)[CH]O

>  <rmg_adjacency_list>  (1) 
1  O u0 p2 c0 {5,S}
2  C u0 p0 c0 {3,S} {4,S} {5,S} {6,S}
3  C u0 p0 c0 {2,S} {7,S} {8,S} {9,S}
4  C u0 p0 c0 {2,S} {10,S} {11,S} {12,S}
5  C u0 p0 c0 {1,S} {2,S} {13,S}
6  H u0 p0 c0 {2,S}
7  H u0 p0 c0 {3,S}
8  H u0 p0 c0 {3,S}
9  H u0 p0 c0 {3,S}
10 H u0 p0 c0 {4,S}
11 H u0 p0 c0 {4,S}
12 H u0 p0 c0 {4,S}
13 H u0 p0 c0 {5,S}


>  <multiplicity>  (1) 
1

>  <reaction>  (1) 
rxn_30

>  <type>  (1) 
r1h

>  <role_mapnums>  (1) 
{"r1h_a": 2, "r1h_h": 9}

>  <role_mapidx>  (1) 
{"r1h_a": 1, "r1h_h": 8}

>  <ordered_mapped_smiles>  (1) 
[C:1]([C:2]([C:3]([H:10])([H:11])[H:12])([CH:4]([OH:5])[H:13])[H:9])([H:6])([H:7])[H:8]

>  <mol_properties>  (1) 
{"1": {"label": "donator", "atom_type": "Cs"}, "8": {"label": "d_hydrogen", "atom_type": "H0"}}

>  <level_of_theory>  (1) 
wb97xd/def2tzvp

>  <lot_method>  (1) 
wb97xd

>  <lot_basis>  (1) 
def2tzvp

>  <spin_multiplicity>  (1) 
1.0

>  <optical_isomers>  (1) 
2.0

>  <modes>  (1) 
IdealGasTranslation(mass=(72.0575, 'amu')),         NonlinearRotor(             inertia = ([67.0896, 122.601, 168.994

>  <frequency_value>  (1) 
unknown

>  <frequency_units>  (1) 
unknown

>  <frequency_list>  (1) 
unknown

>  <arkane_path>  (1) 
/home/calvin/Dropbox/PersonalFolders/Calvin/HAb_Converged/rxn_30/output/Species/rxn_30_CC[C]C=O/arkane/output.py

>  <path_exists>  (1) 
True

>  <E0_value>  (1) 
-610076.3218096481

>  <E0_units>  (1) 
kJ/mol

>  <thermo_class>  (1) 
NASA

>  <Cp0_value>  (1) 
33.257888

>  <Cp0_units>  (1) 
J/(mol*K)

>  <CpInf_value>  (1) 
307.635464

>  <CpInf_units>  (1) 
J/(mol*K)

>  <Tmin_value>  (1) 
10.0

>  <Tmin_units>  (1) 
K

>  <Tmax_value>  (1) 
3000.0

>  <Tmax_units>  (1) 
K

>  <polynomials>  (1) 
[{"name": "polynomial1", "class": "NASAPolynomial", "Tmin_value": 10.0, "Tmin_units": "K", "Tmax_value": 995.3336696168636, "Tmax_units": "K", "coeffs": [3.756663188891078, 0.02341371523624134, 2.2424391775105e-05, -3.579681762731898e-08, 1.2811225432440499e-11, -73375232.79003252, 10.355262566621638]}, {"name": "polynomial2", "class": "NASAPolynomial", "Tmin_value": 995.3336696168636, "Tmin_units": "K", "Tmax_value": 3000.0, "Tmax_units": "K", "coeffs": [2.4279700508400905, 0.04058544118397594, -2.1285215576942494e-05, 5.422772512576001e-09, -5.417913849462741e-13, -73375554.38492392, 13.815018156388629]}]

>  <H298_value>  (1) 
-145807.18422061595

>  <H298_units>  (1) 
kcal/mol

>  <S298_value>  (1) 
78.37499904716951

>  <S298_units>  (1) 
cal/(mol*K)

>  <Cp_T_value_list>  (1) 
[23.719753593750905, 29.305379995868833, 34.56888417044758, 39.358404450289115, 47.21354926254309, 52.87792909324017, 61.55061163204745, 65.91863644842242, 68.00072903400115]

>  <Cp_T_units>  (1) 
cal/(mol*K)

>  <T_list>  (1) 
[300.0, 400.0, 500.0, 600.0, 800.0, 1000.0, 1500.0, 2000.0, 2400.0]

>  <T_units>  (1) 
K

>  <yaml_path>  (1) 
/home/calvin/Dropbox/PersonalFolders/Calvin/HAb_Converged/rxn_30/output/Species/rxn_30_CC[C]C=O/rxn_30_CCCC=O.yml

>  <frequencies_cm1>  (1) 
[94.5240529298, 201.60095502455997, 233.31956021763997, 274.14378794504, 347.23597969112, 400.67485945136, 640.3875830019199, 799.44756396908, 915.12193168448, 929.6730735775599, 943.0293600249599, 974.6998963208, 1127.9778756485198, 1156.4415297999199, 1197.00481208516, 1301.5134616702398, 1352.03387266948, 1395.2752792295198, 1399.92422829116, 1422.20072866924, 1471.0455952503999, 1476.6284543155598, 1490.4585627500398, 1495.12124578232, 1825.1004913642798, 2845.90532712356, 2983.0870928612003, 3013.6108426086, 3024.3576746343997, 3085.6111836887994, 3095.6232482853598, 3098.5760519729597, 3108.5949835548395]

>  <ZPE_kJmol>  (1) 
293.8026373886657

>  <E_elec_kJmol>  (1) 
-610370.1244470368

>  <E0_minus_Eelec_plus_ZPE_kJmol>  (1) 
0.0

>  <rxn>  (1) 
rxn_30

>  <species_type>  (1) 
r0

>  <species_folder>  (1) 
rxn_30_CC[C]C=O

>  <frequencies_cm1_list>  (1) 
[94.5240529298, 201.60095502455997, 233.31956021763997, 274.14378794504, 347.23597969112, 400.67485945136, 640.3875830019199, 799.44756396908, 915.12193168448, 929.6730735775599, 943.0293600249599, 974.6998963208, 1127.9778756485198, 1156.4415297999199, 1197.00481208516, 1301.5134616702398, 1352.03387266948, 1395.2752792295198, 1399.92422829116, 1422.20072866924, 1471.0455952503999, 1476.6284543155598, 1490.4585627500398, 1495.12124578232, 1825.1004913642798, 2845.90532712356, 2983.0870928612003, 3013.6108426086, 3024.3576746343997, 3085.6111836887994, 3095.6232482853598, 3098.5760519729597, 3108.5949835548395]

>  <E0_kJmol>  (1) 
-610076

>  <H298_kJmol>  (1) 
-610057

$$$$

     RDKit          3D

  2  1  0  0  0  0  0  0  0  0999 V2000
    0.1515    0.0651   -0.0425 H   0  0  0  0  0  0  0  0  0  1  0  0
   -0.5068   -0.2179    0.1423 H   0  0  0  0  0  0  0  0  0  2  0  0
  1  2  1  0
M  END
>  <rmg_smiles>  (2) 
[H][H]

>  <rmg_adjacency_list>  (2) 
1 H u0 p0 c0 {2,S}
2 H u0 p0 c0 {1,S}


>  <multiplicity>  (2) 
1

>  <reaction>  (2) 
rxn_30

>  <type>  (2) 
r2h

>  <role_mapnums>  (2) 
{"r2h_a": 2, "r2h_h": 1}

>  <role_mapidx>  (2) 
{"r2h_a": 1, "r2h_h": 0}

>  <ordered_mapped_smiles>  (2) 
[H:1][H:2]

>  <mol_properties>  (2) 
{"0": {"label": "a_hydrogen", "atom_type": "H0"}, "1": {"label": "acceptor", "atom_type": "H0"}}

>  <level_of_theory>  (2) 
wb97xd/def2tzvp

>  <lot_method>  (2) 
wb97xd

>  <lot_basis>  (2) 
def2tzvp

>  <spin_multiplicity>  (2) 
1.0

>  <optical_isomers>  (2) 
1.0

>  <modes>  (2) 
IdealGasTranslation(mass=(2.01565, 'amu')),         LinearRotor(inertia=(0.279051, 'amu*angstrom^2'), symmetry=2),         HarmonicOscillator(frequencies=([4384.98

>  <frequency_value>  (2) 
unknown

>  <frequency_units>  (2) 
unknown

>  <frequency_list>  (2) 
unknown

>  <arkane_path>  (2) 
/home/calvin/Dropbox/PersonalFolders/Calvin/HAb_Converged/rxn_30/output/Species/rxn_30_[H][H]/arkane/output.py

>  <path_exists>  (2) 
True

>  <E0_value>  (2) 
-3062.16965545063

>  <E0_units>  (2) 
kJ/mol

>  <thermo_class>  (2) 
NASA

>  <Cp0_value>  (2) 
29.100652

>  <Cp0_units>  (2) 
J/(mol*K)

>  <CpInf_value>  (2) 
37.415124

>  <CpInf_units>  (2) 
J/(mol*K)

>  <Tmin_value>  (2) 
10.0

>  <Tmin_units>  (2) 
K

>  <Tmax_value>  (2) 
3000.0

>  <Tmax_units>  (2) 
K

>  <polynomials>  (2) 
[{"name": "polynomial1", "class": "NASAPolynomial", "Tmin_value": 10.0, "Tmin_units": "K", "Tmax_value": 609.8839760798177, "Tmax_units": "K", "coeffs": [3.498630427760662, 8.118128927195725e-05, -2.559636751505851e-07, 1.12469612407288e-11, 3.0815171130046294e-13, -368293.8823611774, -4.277290681887199]}, {"name": "polynomial2", "class": "NASAPolynomial", "Tmin_value": 609.8839760798177, "Tmin_units": "K", "Tmax_value": 3000.0, "Tmax_units": "K", "coeffs": [3.686867766797846, -0.0007828622299568348, 9.578139376048542e-07, -3.193665739780837e-10, 3.533006631714403e-14, -368323.7341208647, -5.148841965058497]}]

>  <H298_value>  (2) 
-729.8011438890577

>  <H298_units>  (2) 
kcal/mol

>  <S298_value>  (2) 
31.136082854374543

>  <S298_units>  (2) 
cal/(mol*K)

>  <Cp_T_value_list>  (2) 
[6.960683160805141, 6.952753142081975, 6.947066275630451, 6.950370161364484, 7.003977696739648, 7.10979357060473, 7.489089863592967, 7.874797646413975, 8.112273708870758]

>  <Cp_T_units>  (2) 
cal/(mol*K)

>  <T_list>  (2) 
[300.0, 400.0, 500.0, 600.0, 800.0, 1000.0, 1500.0, 2000.0, 2400.0]

>  <T_units>  (2) 
K

>  <yaml_path>  (2) 
/home/calvin/Dropbox/PersonalFolders/Calvin/HAb_Converged/rxn_30/output/Species/rxn_30_[H][H]/rxn_30_HH.yml

>  <frequencies_cm1>  (2) 
[4384.97527895388]

>  <ZPE_kJmol>  (2) 
26.22798418526521

>  <E_elec_kJmol>  (2) 
-3088.3976396358958

>  <E0_minus_Eelec_plus_ZPE_kJmol>  (2) 
0.0

>  <rxn>  (2) 
rxn_30

>  <species_type>  (2) 
p1

>  <species_folder>  (2) 
rxn_30_[H][H]

>  <frequencies_cm1_list>  (2) 
[4384.97527895388]

>  <E0_kJmol>  (2) 
-3062.17

>  <H298_kJmol>  (2) 
-3053.49

$$$$

     RDKit          3D

 14 12  0  0  0  0  0  0  0  0999 V2000
   -0.6237   -0.0333   -1.7087 C   0  0  0  0  0  0  0  0  0  1  0  0
   -0.5312    0.0058   -0.1942 C   0  0  0  0  0  0  0  0  0  2  0  0
   -0.5935    1.3863    0.4166 C   0  0  0  0  0  0  0  0  0  3  0  0
    0.5698   -0.8575    0.3413 C   0  0  0  0  0  0  0  0  0  4  0  0
    1.2664   -0.5791    1.2789 O   0  0  0  0  0  0  0  0  0  5  0  0
    0.2007    0.5269   -2.1572 H   0  0  0  0  0  0  0  0  0  6  0  0
   -1.5573    0.4174   -2.0469 H   0  0  0  0  0  0  0  0  0  7  0  0
   -0.5849   -1.0564   -2.0875 H   0  0  0  0  0  0  0  0  0  8  0  0
   -1.5076   -0.5821    0.1886 H   0  0  0  0  0  0  0  0  0  9  0  0
   -1.5079    1.8974    0.1124 H   0  0  0  0  0  0  0  0  0 10  0  0
    0.2583    1.9851    0.0857 H   0  0  0  0  0  0  0  0  0 11  0  0
   -0.5593    1.3369    1.5039 H   0  0  0  0  0  0  0  0  0 12  0  0
    0.6976   -1.8250   -0.1895 H   0  0  0  0  0  0  0  0  0 13  0  0
   -2.5211   -1.0179    0.4733 H   0  0  0  0  0 15  0  0  0 14  0  0
  1  8  1  0
  1  7  1  0
  1  6  1  0
  1  2  1  0
  2  9  1  0
  2  3  1  0
  2  4  1  0
  3 11  1  0
  3 12  1  0
  3 10  1  0
  4 13  1  0
  4  5  1  0
M  END
>  <rmg_smiles>  (3) 
CC(C)[CH]O.[H]

>  <rmg_adjacency_list>  (3) 
multiplicity 2
1  O u0 p2 c0 {5,S}
2  C u0 p0 c0 {3,S} {4,S} {5,S} {6,S}
3  C u0 p0 c0 {2,S} {7,S} {8,S} {9,S}
4  C u0 p0 c0 {2,S} {10,S} {11,S} {12,S}
5  C u0 p0 c0 {1,S} {2,S} {13,S}
6  H u0 p0 c0 {2,S}
7  H u0 p0 c0 {3,S}
8  H u0 p0 c0 {3,S}
9  H u0 p0 c0 {3,S}
10 H u0 p0 c0 {4,S}
11 H u0 p0 c0 {4,S}
12 H u0 p0 c0 {4,S}
13 H u0 p0 c0 {5,S}
14 H u1 p0 c0


>  <multiplicity>  (3) 
2

>  <reaction>  (3) 
rxn_30

>  <type>  (3) 
ts

>  <role_mapnums>  (3) 
{"*2": 9, "*1": 2, "*3": 14, "*0": null, "*4": 4}

>  <role_mapidx>  (3) 
{"*2": 8, "*1": 1, "*3": 13, "*4": 3}

>  <ordered_mapped_smiles>  (3) 
[C:1]([C:2]([C:3]([H:10])([H:11])[H:12])([CH:4]([OH:5])[H:13])[H:9])([H:6])([H:7])[H:8].[H:14]

>  <mol_properties>  (3) 
{"1": {"label": "*1", "atom_type": "Cs"}, "3": {"label": "*4", "atom_type": "Cs"}, "8": {"label": "*2", "atom_type": "H0"}, "13": {"label": "*3", "atom_type": "H0"}}

>  <level_of_theory>  (3) 
wb97xd/def2tzvp

>  <lot_method>  (3) 
wb97xd

>  <lot_basis>  (3) 
def2tzvp

>  <spin_multiplicity>  (3) 
2.0

>  <optical_isomers>  (3) 
2.0

>  <modes>  (3) 
IdealGasTranslation(mass=(73.0653, 'amu')),         NonlinearRotor(             inertia = ([71.9399, 133.407, 175.455

>  <frequency_value>  (3) 
-1077.52

>  <frequency_units>  (3) 
cm^-1

>  <frequency_list>  (3) 
unknown

>  <arkane_path>  (3) 
/home/calvin/Dropbox/PersonalFolders/Calvin/HAb_Converged/rxn_30/output/rxns/TS0/arkane/output.py

>  <path_exists>  (3) 
True

>  <E0_value>  (3) 
-611376.0

>  <E0_units>  (3) 
kJ/mol

>  <thermo_class>  (3) 
unknown

>  <Cp0_value>  (3) 
unknown

>  <Cp0_units>  (3) 
unknown

>  <CpInf_value>  (3) 
unknown

>  <CpInf_units>  (3) 
unknown

>  <Tmin_value>  (3) 
unknown

>  <Tmin_units>  (3) 
unknown

>  <Tmax_value>  (3) 
unknown

>  <Tmax_units>  (3) 
unknown

>  <polynomials>  (3) 
unknown

>  <H298_value>  (3) 
unknown

>  <H298_units>  (3) 
unknown

>  <S298_value>  (3) 
unknown

>  <S298_units>  (3) 
unknown

>  <Cp_T_value_list>  (3) 
unknown

>  <Cp_T_units>  (3) 
unknown

>  <T_list>  (3) 
unknown

>  <T_units>  (3) 
unknown

>  <yaml_path>  (3) 
unknown

>  <frequencies_cm1>  (3) 
unknown

>  <ZPE_kJmol>  (3) 
unknown

>  <E_elec_kJmol>  (3) 
unknown

>  <E0_minus_Eelec_plus_ZPE_kJmol>  (3) 
unknown

>  <rxn>  (3) 
unknown

>  <species_type>  (3) 
unknown

>  <species_folder>  (3) 
unknown

>  <frequencies_cm1_list>  (3) 
[]

>  <ts_imag_freq_cm1>  (3) 
-1090.607

>  <ts_freq_out_path>  (3) 
/home/calvin/Dropbox/PersonalFolders/Calvin/HAb_Converged/rxn_30/output/rxns/TS0/geometry/freq.out

>  <E0_kJmol>  (3) 
-611376

>  <H298_kJmol>  (3) 
unknown

$$$$

     RDKit          3D

 12 11  0  0  0  0  0  0  0  0999 V2000
    1.2759   -0.1809    0.5779 C   0  0  0  0  0  0  0  0  0  1  0  0
   -0.0308    0.1421   -0.0454 C   0  0  0  0  0  0  0  0  0  2  0  0
   -1.0340   -0.9362   -0.2334 C   0  0  0  0  0  0  0  0  0  3  0  0
   -0.3206    1.4787   -0.4607 C   0  0  0  0  0  0  0  0  0  4  0  0
    0.4511    2.4229   -0.3412 O   0  0  0  0  0  1  0  0  0  5  0  0
    1.7997   -0.9462   -0.0042 H   0  0  0  0  0  0  0  0  0  6  0  0
    1.9028    0.7056    0.6488 H   0  0  0  0  0  0  0  0  0  7  0  0
    1.1302   -0.5993    1.5792 H   0  0  0  0  0  0  0  0  0  8  0  0
   -1.2958   -1.3938    0.7265 H   0  0  0  0  0  0  0  0  0  9  0  0
   -0.6268   -1.7403   -0.8555 H   0  0  0  0  0  0  0  0  0 10  0  0
   -1.9484   -0.5689   -0.7006 H   0  0  0  0  0  0  0  0  0 11  0  0
   -1.3175    1.6325   -0.9160 H   0  0  0  0  0  0  0  0  0 12  0  0
  1  8  1  0
  1  7  1  0
  1  6  1  0
  1  2  1  0
  2  3  1  0
  2  4  1  0
  3 11  1  0
  3  9  1  0
  3 10  1  0
  4 12  1  0
  4  5  1  0
M  RAD  1   5   2
M  END
>  <rmg_smiles>  (4) 
CC(C)[CH][O]

>  <rmg_adjacency_list>  (4) 
multiplicity 2
1  O u1 p2 c0 {5,S}
2  C u0 p0 c0 {4,S} {6,S} {7,S} {8,S}
3  C u0 p0 c0 {4,S} {9,S} {10,S} {11,S}
4  C u0 p0 c0 {2,S} {3,S} {5,S}
5  C u0 p0 c0 {1,S} {4,S} {12,S}
6  H u0 p0 c0 {2,S}
7  H u0 p0 c0 {2,S}
8  H u0 p0 c0 {2,S}
9  H u0 p0 c0 {3,S}
10 H u0 p0 c0 {3,S}
11 H u0 p0 c0 {3,S}
12 H u0 p0 c0 {5,S}


>  <multiplicity>  (4) 
2

>  <reaction>  (4) 
rxn_30

>  <type>  (4) 
r1

>  <role_mapnums>  (4) 
{}

>  <role_mapidx>  (4) 
{}

>  <ordered_mapped_smiles>  (4) 
[C:1]([CH:2]([C:3]([H:9])([H:10])[H:11])[CH:4]([O:5])[H:12])([H:6])([H:7])[H:8]

>  <level_of_theory>  (4) 
wb97xd/def2tzvp

>  <lot_method>  (4) 
wb97xd

>  <lot_basis>  (4) 
def2tzvp

>  <spin_multiplicity>  (4) 
2.0

>  <optical_isomers>  (4) 
1.0

>  <modes>  (4) 
IdealGasTranslation(mass=(71.0497, 'amu')),         NonlinearRotor(             inertia = ([60.0178, 125.753, 179.577

>  <frequency_value>  (4) 
unknown

>  <frequency_units>  (4) 
unknown

>  <frequency_list>  (4) 
unknown

>  <arkane_path>  (4) 
/home/calvin/Dropbox/PersonalFolders/Calvin/HAb_Converged/rxn_30/output/Species/rxn_30_C[C][C]C=O/arkane/output.py

>  <path_exists>  (4) 
True

>  <E0_value>  (4) 
-608419.3922921486

>  <E0_units>  (4) 
kJ/mol

>  <thermo_class>  (4) 
NASA

>  <Cp0_value>  (4) 
33.257888

>  <Cp0_units>  (4) 
J/(mol*K)

>  <CpInf_value>  (4) 
282.692048

>  <CpInf_units>  (4) 
J/(mol*K)

>  <Tmin_value>  (4) 
10.0

>  <Tmin_units>  (4) 
K

>  <Tmax_value>  (4) 
3000.0

>  <Tmax_units>  (4) 
K

>  <polynomials>  (4) 
[{"name": "polynomial1", "class": "NASAPolynomial", "Tmin_value": 10.0, "Tmin_units": "K", "Tmax_value": 1170.217354588153, "Tmax_units": "K", "coeffs": [3.764132289542002, 0.02664553562115706, 5.253752075900849e-06, -1.6485729331139258e-08, 5.7641045457934455e-12, -73175950.53205556, 10.25378726963872]}, {"name": "polynomial2", "class": "NASAPolynomial", "Tmin_value": 1170.217354588153, "Tmin_units": "K", "Tmax_value": 3000.0, "Tmax_units": "K", "coeffs": [5.968231594305998, 0.030754387335906252, -1.4936966333650164e-05, 3.5189057047535763e-09, -3.2594444591737685e-13, -73177263.57701406, -4.132340765468773]}]

>  <H298_value>  (4) 
-145411.1115537695

>  <H298_units>  (4) 
kcal/mol

>  <S298_value>  (4) 
78.96758771246064

>  <S298_units>  (4) 
cal/(mol*K)

>  <Cp_T_value_list>  (4) 
[23.51303512906122, 28.52718647037169, 33.18610709417525, 37.41694194254924, 44.44038767362497, 49.56449756944588, 57.06830088336957, 60.93823469777757, 62.742335416058815]

>  <Cp_T_units>  (4) 
cal/(mol*K)

>  <T_list>  (4) 
[300.0, 400.0, 500.0, 600.0, 800.0, 1000.0, 1500.0, 2000.0, 2400.0]

>  <T_units>  (4) 
K

>  <yaml_path>  (4) 
/home/calvin/Dropbox/PersonalFolders/Calvin/HAb_Converged/rxn_30/output/Species/rxn_30_C[C][C]C=O/rxn_30_CCCC=O.yml

>  <frequencies_cm1>  (4) 
[101.71378655983999, 130.80233637535997, 222.71693488356, 285.44684578176, 363.62747364995994, 376.76401656712, 603.78655124632, 818.83306352744, 922.7854873015998, 950.9332601282799, 954.27748197912, 1013.7249738943599, 1048.44445167228, 1269.66438375608, 1344.87160698072, 1386.2520605190398, 1401.84011719544, 1417.43504085716, 1449.59313311072, 1452.38799613596, 1469.9537445845199, 1490.74010914816, 1604.4024501648, 2904.73479036, 2989.45965523816, 2995.3446616573997, 3040.0075341786796, 3044.02472059088, 3093.21293643804, 3123.9564297156794]

>  <ZPE_kJmol>  (4) 
258.8225448560921

>  <E_elec_kJmol>  (4) 
-608678.2148370047

>  <E0_minus_Eelec_plus_ZPE_kJmol>  (4) 
0.0

>  <rxn>  (4) 
rxn_30

>  <species_type>  (4) 
p0

>  <species_folder>  (4) 
rxn_30_C[C][C]C=O

>  <frequencies_cm1_list>  (4) 
[101.71378655983999, 130.80233637535997, 222.71693488356, 285.44684578176, 363.62747364995994, 376.76401656712, 603.78655124632, 818.83306352744, 922.7854873015998, 950.9332601282799, 954.27748197912, 1013.7249738943599, 1048.44445167228, 1269.66438375608, 1344.87160698072, 1386.2520605190398, 1401.84011719544, 1417.43504085716, 1449.59313311072, 1452.38799613596, 1469.9537445845199, 1490.74010914816, 1604.4024501648, 2904.73479036, 2989.45965523816, 2995.3446616573997, 3040.0075341786796, 3044.02472059088, 3093.21293643804, 3123.9564297156794]

>  <E0_kJmol>  (4) 
-608419

>  <H298_kJmol>  (4) 
-608400

$$$$

     RDKit          3D

  1  0  0  0  0  0  0  0  0  0999 V2000
    0.0000    0.0000    0.0000 H   0  0  0  0  0 15  0  0  0  1  0  0
M  END
>  <rmg_smiles>  (5) 
[H]

>  <rmg_adjacency_list>  (5) 
multiplicity 2
1 H u1 p0 c0


>  <multiplicity>  (5) 
2

>  <reaction>  (5) 
rxn_30

>  <type>  (5) 
r2

>  <role_mapnums>  (5) 
{}

>  <role_mapidx>  (5) 
{}

>  <ordered_mapped_smiles>  (5) 
[H:1]

>  <level_of_theory>  (5) 
wb97xd/def2tzvp

>  <lot_method>  (5) 
wb97xd

>  <lot_basis>  (5) 
def2tzvp

>  <spin_multiplicity>  (5) 
2.0

>  <optical_isomers>  (5) 
1.0

>  <modes>  (5) 
IdealGasTranslation(mass=(1.00797, 'amu')),

>  <frequency_value>  (5) 
unknown

>  <frequency_units>  (5) 
unknown

>  <frequency_list>  (5) 
unknown

>  <arkane_path>  (5) 
/home/calvin/Dropbox/PersonalFolders/Calvin/HAb_Converged/rxn_30/output/Species/rxn_30_[H]/arkane/output.py

>  <path_exists>  (5) 
True

>  <E0_value>  (5) 
-1319.7535890175566

>  <E0_units>  (5) 
kJ/mol

>  <thermo_class>  (5) 
NASA

>  <Cp0_value>  (5) 
20.78618

>  <Cp0_units>  (5) 
J/(mol*K)

>  <CpInf_value>  (5) 
20.78618

>  <CpInf_units>  (5) 
J/(mol*K)

>  <Tmin_value>  (5) 
10.0

>  <Tmin_units>  (5) 
K

>  <Tmax_value>  (5) 
3000.0

>  <Tmax_units>  (5) 
K

>  <polynomials>  (5) 
[{"name": "polynomial1", "class": "NASAPolynomial", "Tmin_value": 10.0, "Tmin_units": "K", "Tmax_value": 1853.5663026740365, "Tmax_units": "K", "coeffs": [2.500000000000126, -2.814048095438137e-15, 9.047587538332909e-18, -8.591944598242694e-21, 2.4182720553650057e-24, -158729.69562032758, -0.461069367474324]}, {"name": "polynomial2", "class": "NASAPolynomial", "Tmin_value": 1853.5663026740365, "Tmin_units": "K", "Tmax_value": 3000.0, "Tmax_units": "K", "coeffs": [2.500000000696122, -1.3129776766613561e-12, 9.140875080033424e-16, -2.782806647322001e-19, 3.1263265306749967e-23, -158729.69562061856, -0.4610693713504795]}]

>  <H298_value>  (5) 
-313.9482141882736

>  <H298_units>  (5) 
kcal/mol

>  <S298_value>  (5) 
27.387012987908147

>  <S298_units>  (5) 
cal/(mol*K)

>  <Cp_T_value_list>  (5) 
[4.968016252389826, 4.968016252389978, 4.968016252390173, 4.96801625239036, 4.968016252390567, 4.968016252390427, 4.968016252389077, 4.968016252391019, 4.968016252390868]

>  <Cp_T_units>  (5) 
cal/(mol*K)

>  <T_list>  (5) 
[300.0, 400.0, 500.0, 600.0, 800.0, 1000.0, 1500.0, 2000.0, 2400.0]

>  <T_units>  (5) 
K

>  <yaml_path>  (5) 
/home/calvin/Dropbox/PersonalFolders/Calvin/HAb_Converged/rxn_30/output/Species/rxn_30_[H]/rxn_30_H.yml

>  <frequencies_cm1>  (5) 
[]

>  <ZPE_kJmol>  (5) 
unknown

>  <E_elec_kJmol>  (5) 
unknown

>  <E0_minus_Eelec_plus_ZPE_kJmol>  (5) 
unknown

>  <rxn>  (5) 
rxn_30

>  <species_type>  (5) 
r1

>  <species_folder>  (5) 
rxn_30_[H]

>  <frequencies_cm1_list>  (5) 
[]

>  <E0_kJmol>  (5) 
-1319.75

>  <H298_kJmol>  (5) 
-1313.56

$$$$
